* NGSPICE file created from FIFO_Model.ext - technology: sky130A

* Black-box entry subcircuit for sky130_fd_sc_hd__fill_1 abstract view
.subckt sky130_fd_sc_hd__fill_1 VGND VNB VPB VPWR
.ends

* Black-box entry subcircuit for sky130_fd_sc_hd__decap_4 abstract view
.subckt sky130_fd_sc_hd__decap_4 VGND VNB VPB VPWR
.ends

* Black-box entry subcircuit for sky130_fd_sc_hd__tapvpwrvgnd_1 abstract view
.subckt sky130_fd_sc_hd__tapvpwrvgnd_1 VGND VPWR
.ends

* Black-box entry subcircuit for sky130_fd_sc_hd__clkbuf_1 abstract view
.subckt sky130_fd_sc_hd__clkbuf_1 A VGND VNB VPB VPWR X
.ends

* Black-box entry subcircuit for sky130_fd_sc_hd__clkbuf_2 abstract view
.subckt sky130_fd_sc_hd__clkbuf_2 A VGND VNB VPB VPWR X
.ends

* Black-box entry subcircuit for sky130_fd_sc_hd__fill_2 abstract view
.subckt sky130_fd_sc_hd__fill_2 VGND VNB VPB VPWR
.ends

* Black-box entry subcircuit for sky130_fd_sc_hd__decap_8 abstract view
.subckt sky130_fd_sc_hd__decap_8 VGND VNB VPB VPWR
.ends

* Black-box entry subcircuit for sky130_fd_sc_hd__decap_3 abstract view
.subckt sky130_fd_sc_hd__decap_3 VGND VNB VPB VPWR
.ends

* Black-box entry subcircuit for sky130_fd_sc_hd__decap_6 abstract view
.subckt sky130_fd_sc_hd__decap_6 VGND VNB VPB VPWR
.ends

* Black-box entry subcircuit for sky130_fd_sc_hd__mux4_1 abstract view
.subckt sky130_fd_sc_hd__mux4_1 A0 A1 A2 A3 S0 S1 VGND VNB VPB VPWR X
.ends

* Black-box entry subcircuit for sky130_fd_sc_hd__dfxtp_1 abstract view
.subckt sky130_fd_sc_hd__dfxtp_1 CLK D VGND VNB VPB VPWR Q
.ends

* Black-box entry subcircuit for sky130_ef_sc_hd__decap_12 abstract view
.subckt sky130_ef_sc_hd__decap_12 VPWR VGND VPB VNB
.ends

* Black-box entry subcircuit for sky130_fd_sc_hd__dfrtp_1 abstract view
.subckt sky130_fd_sc_hd__dfrtp_1 CLK D RESET_B VGND VNB VPB VPWR Q
.ends

* Black-box entry subcircuit for sky130_fd_sc_hd__dlygate4sd3_1 abstract view
.subckt sky130_fd_sc_hd__dlygate4sd3_1 A VGND VNB VPB VPWR X
.ends

* Black-box entry subcircuit for sky130_fd_sc_hd__and3b_1 abstract view
.subckt sky130_fd_sc_hd__and3b_1 A_N B C VGND VNB VPB VPWR X
.ends

* Black-box entry subcircuit for sky130_fd_sc_hd__mux2_1 abstract view
.subckt sky130_fd_sc_hd__mux2_1 A0 A1 S VGND VNB VPB VPWR X
.ends

* Black-box entry subcircuit for sky130_fd_sc_hd__clkbuf_4 abstract view
.subckt sky130_fd_sc_hd__clkbuf_4 A VGND VNB VPB VPWR X
.ends

* Black-box entry subcircuit for sky130_fd_sc_hd__buf_2 abstract view
.subckt sky130_fd_sc_hd__buf_2 A VGND VNB VPB VPWR X
.ends

* Black-box entry subcircuit for sky130_fd_sc_hd__clkbuf_8 abstract view
.subckt sky130_fd_sc_hd__clkbuf_8 A VGND VNB VPB VPWR X
.ends

* Black-box entry subcircuit for sky130_fd_sc_hd__clkinv_1 abstract view
.subckt sky130_fd_sc_hd__clkinv_1 A VGND VNB VPB VPWR Y
.ends

* Black-box entry subcircuit for sky130_fd_sc_hd__dfstp_1 abstract view
.subckt sky130_fd_sc_hd__dfstp_1 CLK D SET_B VGND VNB VPB VPWR Q
.ends

* Black-box entry subcircuit for sky130_fd_sc_hd__a31o_1 abstract view
.subckt sky130_fd_sc_hd__a31o_1 A1 A2 A3 B1 VGND VNB VPB VPWR X
.ends

* Black-box entry subcircuit for sky130_fd_sc_hd__or2_1 abstract view
.subckt sky130_fd_sc_hd__or2_1 A B VGND VNB VPB VPWR X
.ends

* Black-box entry subcircuit for sky130_fd_sc_hd__inv_1 abstract view
.subckt sky130_fd_sc_hd__inv_1 A VGND VNB VPB VPWR Y
.ends

* Black-box entry subcircuit for sky130_fd_sc_hd__clkinvlp_2 abstract view
.subckt sky130_fd_sc_hd__clkinvlp_2 A VGND VNB VPB VPWR Y
.ends

* Black-box entry subcircuit for sky130_fd_sc_hd__nor2_1 abstract view
.subckt sky130_fd_sc_hd__nor2_1 A B VGND VNB VPB VPWR Y
.ends

* Black-box entry subcircuit for sky130_fd_sc_hd__or3_1 abstract view
.subckt sky130_fd_sc_hd__or3_1 A B C VGND VNB VPB VPWR X
.ends

* Black-box entry subcircuit for sky130_fd_sc_hd__nand2b_1 abstract view
.subckt sky130_fd_sc_hd__nand2b_1 A_N B VGND VNB VPB VPWR Y
.ends

* Black-box entry subcircuit for sky130_fd_sc_hd__and2_1 abstract view
.subckt sky130_fd_sc_hd__and2_1 A B VGND VNB VPB VPWR X
.ends

* Black-box entry subcircuit for sky130_fd_sc_hd__o211a_1 abstract view
.subckt sky130_fd_sc_hd__o211a_1 A1 A2 B1 C1 VGND VNB VPB VPWR X
.ends

* Black-box entry subcircuit for sky130_fd_sc_hd__clkinv_2 abstract view
.subckt sky130_fd_sc_hd__clkinv_2 A VGND VNB VPB VPWR Y
.ends

* Black-box entry subcircuit for sky130_fd_sc_hd__or4b_1 abstract view
.subckt sky130_fd_sc_hd__or4b_1 A B C D_N VGND VNB VPB VPWR X
.ends

* Black-box entry subcircuit for sky130_fd_sc_hd__buf_1 abstract view
.subckt sky130_fd_sc_hd__buf_1 A VGND VNB VPB VPWR X
.ends

* Black-box entry subcircuit for sky130_fd_sc_hd__or3b_1 abstract view
.subckt sky130_fd_sc_hd__or3b_1 A B C_N VGND VNB VPB VPWR X
.ends

* Black-box entry subcircuit for sky130_fd_sc_hd__o21ai_1 abstract view
.subckt sky130_fd_sc_hd__o21ai_1 A1 A2 B1 VGND VNB VPB VPWR Y
.ends

* Black-box entry subcircuit for sky130_fd_sc_hd__a21oi_1 abstract view
.subckt sky130_fd_sc_hd__a21oi_1 A1 A2 B1 VGND VNB VPB VPWR Y
.ends

* Black-box entry subcircuit for sky130_fd_sc_hd__dlymetal6s2s_1 abstract view
.subckt sky130_fd_sc_hd__dlymetal6s2s_1 A VGND VNB VPB VPWR X
.ends

* Black-box entry subcircuit for sky130_fd_sc_hd__clkinvlp_4 abstract view
.subckt sky130_fd_sc_hd__clkinvlp_4 A VGND VNB VPB VPWR Y
.ends

* Black-box entry subcircuit for sky130_fd_sc_hd__clkbuf_16 abstract view
.subckt sky130_fd_sc_hd__clkbuf_16 A VGND VNB VPB VPWR X
.ends

* Black-box entry subcircuit for sky130_fd_sc_hd__nand4bb_1 abstract view
.subckt sky130_fd_sc_hd__nand4bb_1 A_N B_N C D VGND VNB VPB VPWR Y
.ends

* Black-box entry subcircuit for sky130_fd_sc_hd__inv_2 abstract view
.subckt sky130_fd_sc_hd__inv_2 A VGND VNB VPB VPWR Y
.ends

* Black-box entry subcircuit for sky130_fd_sc_hd__and4b_1 abstract view
.subckt sky130_fd_sc_hd__and4b_1 A_N B C D VGND VNB VPB VPWR X
.ends

* Black-box entry subcircuit for sky130_fd_sc_hd__nand2_1 abstract view
.subckt sky130_fd_sc_hd__nand2_1 A B VGND VNB VPB VPWR Y
.ends

* Black-box entry subcircuit for sky130_fd_sc_hd__and4bb_1 abstract view
.subckt sky130_fd_sc_hd__and4bb_1 A_N B_N C D VGND VNB VPB VPWR X
.ends

* Black-box entry subcircuit for sky130_fd_sc_hd__buf_6 abstract view
.subckt sky130_fd_sc_hd__buf_6 A VGND VNB VPB VPWR X
.ends

* Black-box entry subcircuit for sky130_fd_sc_hd__a211o_1 abstract view
.subckt sky130_fd_sc_hd__a211o_1 A1 A2 B1 C1 VGND VNB VPB VPWR X
.ends

* Black-box entry subcircuit for sky130_fd_sc_hd__and2b_1 abstract view
.subckt sky130_fd_sc_hd__and2b_1 A_N B VGND VNB VPB VPWR X
.ends

* Black-box entry subcircuit for sky130_fd_sc_hd__and3_1 abstract view
.subckt sky130_fd_sc_hd__and3_1 A B C VGND VNB VPB VPWR X
.ends

* Black-box entry subcircuit for sky130_fd_sc_hd__xor2_1 abstract view
.subckt sky130_fd_sc_hd__xor2_1 A B VGND VNB VPB VPWR X
.ends

* Black-box entry subcircuit for sky130_fd_sc_hd__or2b_1 abstract view
.subckt sky130_fd_sc_hd__or2b_1 A B_N VGND VNB VPB VPWR X
.ends

* Black-box entry subcircuit for sky130_fd_sc_hd__or4_1 abstract view
.subckt sky130_fd_sc_hd__or4_1 A B C D VGND VNB VPB VPWR X
.ends

.subckt FIFO_Model Clk Data_In[0] Data_In[10] Data_In[11] Data_In[12] Data_In[13]
+ Data_In[14] Data_In[15] Data_In[16] Data_In[17] Data_In[18] Data_In[19] Data_In[1]
+ Data_In[20] Data_In[21] Data_In[22] Data_In[23] Data_In[24] Data_In[25] Data_In[26]
+ Data_In[27] Data_In[28] Data_In[29] Data_In[2] Data_In[30] Data_In[31] Data_In[3]
+ Data_In[4] Data_In[5] Data_In[6] Data_In[7] Data_In[8] Data_In[9] FClrN FInN FOutN
+ F_Data[0] F_Data[10] F_Data[11] F_Data[12] F_Data[13] F_Data[14] F_Data[15] F_Data[16]
+ F_Data[17] F_Data[18] F_Data[19] F_Data[1] F_Data[20] F_Data[21] F_Data[22] F_Data[23]
+ F_Data[24] F_Data[25] F_Data[26] F_Data[27] F_Data[28] F_Data[29] F_Data[2] F_Data[30]
+ F_Data[31] F_Data[3] F_Data[4] F_Data[5] F_Data[6] F_Data[7] F_Data[8] F_Data[9]
+ F_EmptyN F_FirstN F_FullN F_LastN F_SLastN RstN VGND VPWR
XFILLER_0_27_71 VGND VGND VPWR VPWR sky130_fd_sc_hd__fill_1
XFILLER_0_4_182 VGND VGND VPWR VPWR sky130_fd_sc_hd__decap_4
XTAP_TAPCELL_ROW_9_126 VGND VPWR sky130_fd_sc_hd__tapvpwrvgnd_1
X_501_ _204_ VGND VGND VPWR VPWR _015_ sky130_fd_sc_hd__clkbuf_1
X_432_ memblk.rd_addr\[1\] VGND VGND VPWR VPWR _166_ sky130_fd_sc_hd__clkbuf_2
XFILLER_0_23_18 VGND VGND VPWR VPWR sky130_fd_sc_hd__fill_2
XTAP_TAPCELL_ROW_23_183 VGND VPWR sky130_fd_sc_hd__tapvpwrvgnd_1
XFILLER_0_3_39 VGND VGND VPWR VPWR sky130_fd_sc_hd__decap_8
XFILLER_0_38_81 VGND VGND VPWR VPWR sky130_fd_sc_hd__decap_3
XPHY_EDGE_ROW_19_Left_61 VGND VGND VPWR VPWR sky130_fd_sc_hd__decap_3
XFILLER_0_9_241 VGND VGND VPWR VPWR sky130_fd_sc_hd__fill_1
XFILLER_0_18_18 VGND VGND VPWR VPWR sky130_fd_sc_hd__decap_6
X_415_ memblk.FIFO\[0\]\[10\] memblk.FIFO\[1\]\[10\] memblk.FIFO\[2\]\[10\] memblk.FIFO\[3\]\[10\]
+ _149_ _150_ VGND VGND VPWR VPWR _156_ sky130_fd_sc_hd__mux4_1
XFILLER_0_37_125 VGND VGND VPWR VPWR sky130_fd_sc_hd__decap_4
XPHY_EDGE_ROW_4_Left_46 VGND VGND VPWR VPWR sky130_fd_sc_hd__decap_3
XTAP_TAPCELL_ROW_40_248 VGND VPWR sky130_fd_sc_hd__tapvpwrvgnd_1
XFILLER_0_37_169 VGND VGND VPWR VPWR sky130_fd_sc_hd__fill_2
X_895_ clknet_4_14_0_Clk _085_ VGND VGND VPWR VPWR memblk.FIFO\[1\]\[19\] sky130_fd_sc_hd__dfxtp_1
XFILLER_0_0_29 VPWR VGND VPWR VGND sky130_ef_sc_hd__decap_12
XTAP_TAPCELL_ROW_31_215 VGND VPWR sky130_fd_sc_hd__tapvpwrvgnd_1
XFILLER_0_10_85 VPWR VGND VPWR VGND sky130_ef_sc_hd__decap_12
XFILLER_0_19_94 VGND VGND VPWR VPWR sky130_fd_sc_hd__fill_1
X_680_ _304_ VGND VGND VPWR VPWR _094_ sky130_fd_sc_hd__clkbuf_1
X_878_ clknet_4_0_0_Clk _068_ VGND VGND VPWR VPWR memblk.FIFO\[1\]\[2\] sky130_fd_sc_hd__dfxtp_1
X_947_ clknet_4_8_0_Clk _137_ net74 VGND VGND VPWR VPWR fcounter\[2\] sky130_fd_sc_hd__dfrtp_1
XFILLER_0_16_128 VGND VGND VPWR VPWR sky130_fd_sc_hd__fill_1
XFILLER_0_34_3 VPWR VGND VPWR VGND sky130_ef_sc_hd__decap_12
Xhold63 memblk.FIFO\[0\]\[15\] VGND VGND VPWR VPWR net138 sky130_fd_sc_hd__dlygate4sd3_1
Xhold52 memblk.FIFO\[3\]\[26\] VGND VGND VPWR VPWR net127 sky130_fd_sc_hd__dlygate4sd3_1
X_801_ _359_ _376_ _374_ VGND VGND VPWR VPWR _383_ sky130_fd_sc_hd__and3b_1
Xhold30 memblk.FIFO\[0\]\[23\] VGND VGND VPWR VPWR net105 sky130_fd_sc_hd__dlygate4sd3_1
X_732_ _333_ VGND VGND VPWR VPWR _117_ sky130_fd_sc_hd__clkbuf_1
XFILLER_0_26_29 VGND VGND VPWR VPWR sky130_fd_sc_hd__fill_1
Xhold74 memblk.FIFO\[1\]\[6\] VGND VGND VPWR VPWR net149 sky130_fd_sc_hd__dlygate4sd3_1
Xhold41 memblk.FIFO\[3\]\[16\] VGND VGND VPWR VPWR net116 sky130_fd_sc_hd__dlygate4sd3_1
Xhold85 memblk.FIFO\[0\]\[19\] VGND VGND VPWR VPWR net160 sky130_fd_sc_hd__dlygate4sd3_1
X_663_ _295_ VGND VGND VPWR VPWR _086_ sky130_fd_sc_hd__clkbuf_1
X_594_ net13 net168 _256_ VGND VGND VPWR VPWR _259_ sky130_fd_sc_hd__mux2_1
Xhold96 memblk.FIFO\[2\]\[16\] VGND VGND VPWR VPWR net171 sky130_fd_sc_hd__dlygate4sd3_1
XFILLER_0_21_197 VGND VGND VPWR VPWR sky130_fd_sc_hd__decap_8
XFILLER_0_32_94 VGND VGND VPWR VPWR sky130_fd_sc_hd__decap_4
XFILLER_0_35_212 VGND VGND VPWR VPWR sky130_fd_sc_hd__decap_3
XFILLER_0_35_223 VGND VGND VPWR VPWR sky130_fd_sc_hd__fill_1
Xoutput42 net42 VGND VGND VPWR VPWR F_Data[14] sky130_fd_sc_hd__clkbuf_4
Xoutput53 net53 VGND VGND VPWR VPWR F_Data[24] sky130_fd_sc_hd__buf_2
Xoutput64 net64 VGND VGND VPWR VPWR F_Data[5] sky130_fd_sc_hd__buf_2
XPHY_EDGE_ROW_33_Left_75 VGND VGND VPWR VPWR sky130_fd_sc_hd__decap_3
X_715_ _309_ VGND VGND VPWR VPWR _324_ sky130_fd_sc_hd__buf_2
XTAP_TAPCELL_ROW_26_192 VGND VPWR sky130_fd_sc_hd__tapvpwrvgnd_1
X_646_ _286_ VGND VGND VPWR VPWR _078_ sky130_fd_sc_hd__clkbuf_1
X_577_ net4 net111 _249_ VGND VGND VPWR VPWR _250_ sky130_fd_sc_hd__mux2_1
XFILLER_0_41_237 VGND VGND VPWR VPWR sky130_fd_sc_hd__decap_8
XFILLER_0_41_215 VGND VGND VPWR VPWR sky130_fd_sc_hd__decap_8
XFILLER_0_26_245 VGND VGND VPWR VPWR sky130_fd_sc_hd__fill_1
XFILLER_0_17_234 VGND VGND VPWR VPWR sky130_fd_sc_hd__fill_1
XTAP_TAPCELL_ROW_9_127 VGND VPWR sky130_fd_sc_hd__tapvpwrvgnd_1
X_500_ net7 net167 _200_ VGND VGND VPWR VPWR _204_ sky130_fd_sc_hd__mux2_1
Xclkbuf_4_5_0_Clk clknet_0_Clk VGND VGND VPWR VPWR clknet_4_5_0_Clk sky130_fd_sc_hd__clkbuf_8
X_431_ memblk.rd_addr\[0\] VGND VGND VPWR VPWR _165_ sky130_fd_sc_hd__buf_2
X_629_ _229_ VGND VGND VPWR VPWR _277_ sky130_fd_sc_hd__buf_2
XFILLER_0_13_41 VGND VGND VPWR VPWR sky130_fd_sc_hd__decap_6
XFILLER_0_13_96 VGND VGND VPWR VPWR sky130_fd_sc_hd__fill_2
X_414_ _155_ VGND VGND VPWR VPWR net68 sky130_fd_sc_hd__clkbuf_1
XTAP_TAPCELL_ROW_11_132 VGND VPWR sky130_fd_sc_hd__tapvpwrvgnd_1
XPHY_EDGE_ROW_20_Left_62 VGND VGND VPWR VPWR sky130_fd_sc_hd__decap_3
XTAP_TAPCELL_ROW_34_224 VGND VPWR sky130_fd_sc_hd__tapvpwrvgnd_1
XFILLER_0_40_94 VGND VGND VPWR VPWR sky130_fd_sc_hd__fill_2
XFILLER_0_6_223 VPWR VGND VPWR VGND sky130_ef_sc_hd__decap_12
XPHY_EDGE_ROW_12_Right_12 VGND VGND VPWR VPWR sky130_fd_sc_hd__decap_3
XFILLER_0_4_61 VGND VGND VPWR VPWR sky130_fd_sc_hd__fill_2
XPHY_EDGE_ROW_21_Right_21 VGND VGND VPWR VPWR sky130_fd_sc_hd__decap_3
XTAP_TAPCELL_ROW_40_249 VGND VPWR sky130_fd_sc_hd__tapvpwrvgnd_1
XPHY_EDGE_ROW_30_Right_30 VGND VGND VPWR VPWR sky130_fd_sc_hd__decap_3
X_894_ clknet_4_11_0_Clk _084_ VGND VGND VPWR VPWR memblk.FIFO\[1\]\[18\] sky130_fd_sc_hd__dfxtp_1
XFILLER_0_10_75 VGND VGND VPWR VPWR sky130_fd_sc_hd__fill_1
XFILLER_0_10_97 VGND VGND VPWR VPWR sky130_fd_sc_hd__fill_1
XTAP_TAPCELL_ROW_0_90 VGND VPWR sky130_fd_sc_hd__tapvpwrvgnd_1
XFILLER_0_31_19 VGND VGND VPWR VPWR sky130_fd_sc_hd__decap_4
X_946_ clknet_4_8_0_Clk _136_ net74 VGND VGND VPWR VPWR fcounter\[1\] sky130_fd_sc_hd__dfrtp_1
X_877_ clknet_4_3_0_Clk _067_ VGND VGND VPWR VPWR memblk.FIFO\[1\]\[1\] sky130_fd_sc_hd__dfxtp_1
XFILLER_0_1_51 VGND VGND VPWR VPWR sky130_fd_sc_hd__decap_4
XFILLER_0_27_3 VPWR VGND VPWR VGND sky130_ef_sc_hd__decap_12
XFILLER_0_1_95 VGND VGND VPWR VPWR sky130_fd_sc_hd__fill_2
X_800_ _376_ _374_ _359_ VGND VGND VPWR VPWR _382_ sky130_fd_sc_hd__and3b_1
Xhold42 memblk.FIFO\[2\]\[24\] VGND VGND VPWR VPWR net117 sky130_fd_sc_hd__dlygate4sd3_1
Xhold53 memblk.FIFO\[3\]\[1\] VGND VGND VPWR VPWR net128 sky130_fd_sc_hd__dlygate4sd3_1
X_731_ net92 net11 _331_ VGND VGND VPWR VPWR _333_ sky130_fd_sc_hd__mux2_1
X_662_ net13 net172 _291_ VGND VGND VPWR VPWR _295_ sky130_fd_sc_hd__mux2_1
Xhold97 memblk.FIFO\[1\]\[20\] VGND VGND VPWR VPWR net172 sky130_fd_sc_hd__dlygate4sd3_1
Xhold75 memblk.FIFO\[0\]\[22\] VGND VGND VPWR VPWR net150 sky130_fd_sc_hd__dlygate4sd3_1
Xhold20 memblk.FIFO\[2\]\[12\] VGND VGND VPWR VPWR net95 sky130_fd_sc_hd__dlygate4sd3_1
Xhold31 memblk.FIFO\[0\]\[10\] VGND VGND VPWR VPWR net106 sky130_fd_sc_hd__dlygate4sd3_1
Xhold64 memblk.FIFO\[2\]\[6\] VGND VGND VPWR VPWR net139 sky130_fd_sc_hd__dlygate4sd3_1
Xhold86 memblk.FIFO\[1\]\[13\] VGND VGND VPWR VPWR net161 sky130_fd_sc_hd__dlygate4sd3_1
X_593_ _258_ VGND VGND VPWR VPWR _053_ sky130_fd_sc_hd__clkbuf_1
XFILLER_0_21_121 VGND VGND VPWR VPWR sky130_fd_sc_hd__decap_3
XFILLER_0_6_29 VGND VGND VPWR VPWR sky130_fd_sc_hd__decap_8
X_929_ clknet_4_15_0_Clk _119_ VGND VGND VPWR VPWR memblk.FIFO\[3\]\[21\] sky130_fd_sc_hd__dfxtp_1
XPHY_EDGE_ROW_6_Right_6 VGND VGND VPWR VPWR sky130_fd_sc_hd__decap_3
Xoutput43 net43 VGND VGND VPWR VPWR F_Data[15] sky130_fd_sc_hd__clkbuf_4
Xoutput65 net65 VGND VGND VPWR VPWR F_Data[6] sky130_fd_sc_hd__clkbuf_4
Xoutput54 net54 VGND VGND VPWR VPWR F_Data[25] sky130_fd_sc_hd__clkbuf_4
X_714_ _323_ VGND VGND VPWR VPWR _109_ sky130_fd_sc_hd__clkbuf_1
X_645_ net4 net143 _284_ VGND VGND VPWR VPWR _286_ sky130_fd_sc_hd__mux2_1
XTAP_TAPCELL_ROW_26_193 VGND VPWR sky130_fd_sc_hd__tapvpwrvgnd_1
X_576_ _234_ VGND VGND VPWR VPWR _249_ sky130_fd_sc_hd__buf_2
XFILLER_0_41_205 VGND VGND VPWR VPWR sky130_fd_sc_hd__fill_1
XFILLER_0_27_95 VGND VGND VPWR VPWR sky130_fd_sc_hd__fill_1
X_430_ _164_ VGND VGND VPWR VPWR net44 sky130_fd_sc_hd__clkbuf_1
X_628_ _276_ VGND VGND VPWR VPWR _070_ sky130_fd_sc_hd__clkbuf_1
XFILLER_0_13_31 VGND VGND VPWR VPWR sky130_fd_sc_hd__fill_1
X_559_ net27 net144 _235_ VGND VGND VPWR VPWR _240_ sky130_fd_sc_hd__mux2_1
XFILLER_0_1_110 VGND VGND VPWR VPWR sky130_fd_sc_hd__fill_2
XFILLER_0_38_94 VGND VGND VPWR VPWR sky130_fd_sc_hd__decap_3
XTAP_TAPCELL_ROW_28_200 VGND VPWR sky130_fd_sc_hd__tapvpwrvgnd_1
X_413_ memblk.FIFO\[0\]\[9\] memblk.FIFO\[1\]\[9\] memblk.FIFO\[2\]\[9\] memblk.FIFO\[3\]\[9\]
+ _149_ _150_ VGND VGND VPWR VPWR _155_ sky130_fd_sc_hd__mux4_1
XTAP_TAPCELL_ROW_11_133 VGND VPWR sky130_fd_sc_hd__tapvpwrvgnd_1
XFILLER_0_11_219 VGND VGND VPWR VPWR sky130_fd_sc_hd__decap_4
XTAP_TAPCELL_ROW_34_225 VGND VPWR sky130_fd_sc_hd__tapvpwrvgnd_1
XFILLER_0_6_235 VGND VGND VPWR VPWR sky130_fd_sc_hd__decap_8
Xclkbuf_4_4_0_Clk clknet_0_Clk VGND VGND VPWR VPWR clknet_4_4_0_Clk sky130_fd_sc_hd__clkbuf_8
X_893_ clknet_4_12_0_Clk _083_ VGND VGND VPWR VPWR memblk.FIFO\[1\]\[17\] sky130_fd_sc_hd__dfxtp_1
XFILLER_0_28_138 VGND VGND VPWR VPWR sky130_fd_sc_hd__fill_2
XFILLER_0_36_171 VPWR VGND VPWR VGND sky130_ef_sc_hd__decap_12
XTAP_TAPCELL_ROW_0_91 VGND VPWR sky130_fd_sc_hd__tapvpwrvgnd_1
XFILLER_0_27_160 VGND VGND VPWR VPWR sky130_fd_sc_hd__decap_8
XFILLER_0_35_95 VGND VGND VPWR VPWR sky130_fd_sc_hd__fill_1
X_945_ clknet_4_2_0_Clk _135_ net75 VGND VGND VPWR VPWR fcounter\[0\] sky130_fd_sc_hd__dfrtp_1
X_876_ clknet_4_1_0_Clk _066_ VGND VGND VPWR VPWR memblk.FIFO\[1\]\[0\] sky130_fd_sc_hd__dfxtp_1
XFILLER_0_24_141 VGND VGND VPWR VPWR sky130_fd_sc_hd__decap_8
XFILLER_0_15_130 VPWR VGND VPWR VGND sky130_ef_sc_hd__decap_12
Xhold32 memblk.FIFO\[2\]\[11\] VGND VGND VPWR VPWR net107 sky130_fd_sc_hd__dlygate4sd3_1
Xhold98 memblk.FIFO\[1\]\[11\] VGND VGND VPWR VPWR net173 sky130_fd_sc_hd__dlygate4sd3_1
Xhold43 memblk.FIFO\[3\]\[11\] VGND VGND VPWR VPWR net118 sky130_fd_sc_hd__dlygate4sd3_1
Xhold54 memblk.FIFO\[0\]\[2\] VGND VGND VPWR VPWR net129 sky130_fd_sc_hd__dlygate4sd3_1
Xhold76 memblk.FIFO\[1\]\[19\] VGND VGND VPWR VPWR net151 sky130_fd_sc_hd__dlygate4sd3_1
X_730_ _332_ VGND VGND VPWR VPWR _116_ sky130_fd_sc_hd__clkbuf_1
X_592_ net11 net160 _256_ VGND VGND VPWR VPWR _258_ sky130_fd_sc_hd__mux2_1
X_661_ _294_ VGND VGND VPWR VPWR _085_ sky130_fd_sc_hd__clkbuf_1
Xhold65 memblk.FIFO\[1\]\[22\] VGND VGND VPWR VPWR net140 sky130_fd_sc_hd__dlygate4sd3_1
Xhold21 memblk.FIFO\[3\]\[10\] VGND VGND VPWR VPWR net96 sky130_fd_sc_hd__dlygate4sd3_1
Xhold87 memblk.FIFO\[1\]\[8\] VGND VGND VPWR VPWR net162 sky130_fd_sc_hd__dlygate4sd3_1
Xhold10 memblk.FIFO\[3\]\[8\] VGND VGND VPWR VPWR net85 sky130_fd_sc_hd__dlygate4sd3_1
XFILLER_0_21_100 VGND VGND VPWR VPWR sky130_fd_sc_hd__fill_1
XFILLER_0_21_111 VGND VGND VPWR VPWR sky130_fd_sc_hd__fill_1
X_928_ clknet_4_14_0_Clk _118_ VGND VGND VPWR VPWR memblk.FIFO\[3\]\[20\] sky130_fd_sc_hd__dfxtp_1
X_859_ clknet_4_13_0_Clk _049_ VGND VGND VPWR VPWR memblk.FIFO\[0\]\[15\] sky130_fd_sc_hd__dfxtp_1
XFILLER_0_29_222 VGND VGND VPWR VPWR sky130_fd_sc_hd__fill_2
XFILLER_0_32_41 VPWR VGND VPWR VGND sky130_ef_sc_hd__decap_12
XFILLER_0_12_100 VGND VGND VPWR VPWR sky130_fd_sc_hd__fill_2
XFILLER_0_12_122 VGND VGND VPWR VPWR sky130_fd_sc_hd__fill_2
XFILLER_0_35_225 VPWR VGND VPWR VGND sky130_ef_sc_hd__decap_12
Xoutput66 net66 VGND VGND VPWR VPWR F_Data[7] sky130_fd_sc_hd__clkbuf_4
XFILLER_0_9_3 VPWR VGND VPWR VGND sky130_ef_sc_hd__decap_12
Xoutput55 net55 VGND VGND VPWR VPWR F_Data[26] sky130_fd_sc_hd__clkbuf_4
Xoutput44 net44 VGND VGND VPWR VPWR F_Data[16] sky130_fd_sc_hd__buf_2
X_644_ _285_ VGND VGND VPWR VPWR _077_ sky130_fd_sc_hd__clkbuf_1
X_575_ _248_ VGND VGND VPWR VPWR _045_ sky130_fd_sc_hd__clkbuf_1
X_713_ net118 net3 _317_ VGND VGND VPWR VPWR _323_ sky130_fd_sc_hd__mux2_1
XTAP_TAPCELL_ROW_26_194 VGND VPWR sky130_fd_sc_hd__tapvpwrvgnd_1
XFILLER_0_11_7 VGND VGND VPWR VPWR sky130_fd_sc_hd__fill_1
XFILLER_0_4_141 VPWR VGND VPWR VGND sky130_ef_sc_hd__decap_12
XFILLER_0_7_51 VGND VGND VPWR VPWR sky130_fd_sc_hd__decap_4
X_558_ _239_ VGND VGND VPWR VPWR _037_ sky130_fd_sc_hd__clkbuf_1
X_627_ net27 net110 _230_ VGND VGND VPWR VPWR _276_ sky130_fd_sc_hd__mux2_1
X_489_ net2 net114 _193_ VGND VGND VPWR VPWR _198_ sky130_fd_sc_hd__mux2_1
XFILLER_0_9_233 VGND VGND VPWR VPWR sky130_fd_sc_hd__decap_8
XTAP_TAPCELL_ROW_5_110 VGND VPWR sky130_fd_sc_hd__tapvpwrvgnd_1
XTAP_TAPCELL_ROW_28_201 VGND VPWR sky130_fd_sc_hd__tapvpwrvgnd_1
X_412_ _154_ VGND VGND VPWR VPWR net67 sky130_fd_sc_hd__clkbuf_1
XTAP_TAPCELL_ROW_11_134 VGND VPWR sky130_fd_sc_hd__tapvpwrvgnd_1
XFILLER_0_24_97 VGND VGND VPWR VPWR sky130_fd_sc_hd__decap_4
XTAP_TAPCELL_ROW_34_226 VGND VPWR sky130_fd_sc_hd__tapvpwrvgnd_1
XFILLER_0_4_41 VGND VGND VPWR VPWR sky130_fd_sc_hd__decap_8
XFILLER_0_37_139 VGND VGND VPWR VPWR sky130_fd_sc_hd__decap_4
X_892_ clknet_4_13_0_Clk _082_ VGND VGND VPWR VPWR memblk.FIFO\[1\]\[16\] sky130_fd_sc_hd__dfxtp_1
XFILLER_0_28_117 VGND VGND VPWR VPWR sky130_fd_sc_hd__fill_2
XFILLER_0_36_183 VGND VGND VPWR VPWR sky130_fd_sc_hd__decap_4
XFILLER_0_19_86 VGND VGND VPWR VPWR sky130_fd_sc_hd__decap_4
XFILLER_0_35_74 VGND VGND VPWR VPWR sky130_fd_sc_hd__fill_1
XFILLER_0_33_164 VGND VGND VPWR VPWR sky130_fd_sc_hd__fill_1
X_944_ clknet_4_0_0_Clk _134_ net75 VGND VGND VPWR VPWR net69 sky130_fd_sc_hd__dfrtp_1
Xclkbuf_4_3_0_Clk clknet_0_Clk VGND VGND VPWR VPWR clknet_4_3_0_Clk sky130_fd_sc_hd__clkbuf_8
X_875_ clknet_4_9_0_Clk _065_ VGND VGND VPWR VPWR memblk.FIFO\[0\]\[31\] sky130_fd_sc_hd__dfxtp_1
XFILLER_0_21_21 VGND VGND VPWR VPWR sky130_fd_sc_hd__fill_2
XFILLER_0_24_120 VGND VGND VPWR VPWR sky130_fd_sc_hd__fill_2
XFILLER_0_24_197 VGND VGND VPWR VPWR sky130_fd_sc_hd__fill_1
XFILLER_0_15_142 VGND VGND VPWR VPWR sky130_fd_sc_hd__decap_6
XFILLER_0_15_197 VGND VGND VPWR VPWR sky130_fd_sc_hd__fill_2
Xhold11 memblk.FIFO\[3\]\[0\] VGND VGND VPWR VPWR net86 sky130_fd_sc_hd__dlygate4sd3_1
Xhold22 memblk.FIFO\[3\]\[6\] VGND VGND VPWR VPWR net97 sky130_fd_sc_hd__dlygate4sd3_1
Xhold55 memblk.FIFO\[3\]\[14\] VGND VGND VPWR VPWR net130 sky130_fd_sc_hd__dlygate4sd3_1
Xhold33 memblk.FIFO\[3\]\[24\] VGND VGND VPWR VPWR net108 sky130_fd_sc_hd__dlygate4sd3_1
Xhold99 memblk.FIFO\[2\]\[18\] VGND VGND VPWR VPWR net174 sky130_fd_sc_hd__dlygate4sd3_1
X_660_ net11 net151 _291_ VGND VGND VPWR VPWR _294_ sky130_fd_sc_hd__mux2_1
X_591_ _257_ VGND VGND VPWR VPWR _052_ sky130_fd_sc_hd__clkbuf_1
Xhold88 memblk.FIFO\[0\]\[30\] VGND VGND VPWR VPWR net163 sky130_fd_sc_hd__dlygate4sd3_1
Xhold44 memblk.FIFO\[3\]\[22\] VGND VGND VPWR VPWR net119 sky130_fd_sc_hd__dlygate4sd3_1
Xhold77 memblk.FIFO\[1\]\[17\] VGND VGND VPWR VPWR net152 sky130_fd_sc_hd__dlygate4sd3_1
Xhold66 memblk.FIFO\[0\]\[21\] VGND VGND VPWR VPWR net141 sky130_fd_sc_hd__dlygate4sd3_1
XFILLER_0_38_245 VGND VGND VPWR VPWR sky130_fd_sc_hd__fill_1
XFILLER_0_21_156 VPWR VGND VPWR VGND sky130_ef_sc_hd__decap_12
X_858_ clknet_4_15_0_Clk _048_ VGND VGND VPWR VPWR memblk.FIFO\[0\]\[14\] sky130_fd_sc_hd__dfxtp_1
X_927_ clknet_4_14_0_Clk _117_ VGND VGND VPWR VPWR memblk.FIFO\[3\]\[19\] sky130_fd_sc_hd__dfxtp_1
X_789_ _369_ _370_ _372_ VGND VGND VPWR VPWR _373_ sky130_fd_sc_hd__mux2_1
XFILLER_0_8_139 VGND VGND VPWR VPWR sky130_fd_sc_hd__fill_1
XFILLER_0_32_53 VPWR VGND VPWR VGND sky130_ef_sc_hd__decap_12
XFILLER_0_32_3 VPWR VGND VPWR VGND sky130_ef_sc_hd__decap_12
XFILLER_0_35_237 VGND VGND VPWR VPWR sky130_fd_sc_hd__decap_4
Xoutput67 net67 VGND VGND VPWR VPWR F_Data[8] sky130_fd_sc_hd__clkbuf_4
Xoutput56 net56 VGND VGND VPWR VPWR F_Data[27] sky130_fd_sc_hd__clkbuf_4
X_712_ _322_ VGND VGND VPWR VPWR _108_ sky130_fd_sc_hd__clkbuf_1
Xoutput45 net45 VGND VGND VPWR VPWR F_Data[17] sky130_fd_sc_hd__buf_2
X_574_ net3 net170 _242_ VGND VGND VPWR VPWR _248_ sky130_fd_sc_hd__mux2_1
X_643_ net3 net173 _284_ VGND VGND VPWR VPWR _285_ sky130_fd_sc_hd__mux2_1
XFILLER_0_5_109 VGND VGND VPWR VPWR sky130_fd_sc_hd__decap_3
XTAP_TAPCELL_ROW_26_195 VGND VPWR sky130_fd_sc_hd__tapvpwrvgnd_1
XFILLER_0_26_226 VGND VGND VPWR VPWR sky130_fd_sc_hd__fill_2
XFILLER_0_4_186 VGND VGND VPWR VPWR sky130_fd_sc_hd__fill_1
XFILLER_0_4_153 VGND VGND VPWR VPWR sky130_fd_sc_hd__decap_4
XFILLER_0_4_120 VGND VGND VPWR VPWR sky130_fd_sc_hd__fill_1
XPHY_EDGE_ROW_37_Left_79 VGND VGND VPWR VPWR sky130_fd_sc_hd__decap_3
X_557_ net26 net199 _235_ VGND VGND VPWR VPWR _239_ sky130_fd_sc_hd__mux2_1
XFILLER_0_13_66 VGND VGND VPWR VPWR sky130_fd_sc_hd__fill_2
X_626_ _275_ VGND VGND VPWR VPWR _069_ sky130_fd_sc_hd__clkbuf_1
X_488_ _197_ VGND VGND VPWR VPWR _009_ sky130_fd_sc_hd__clkbuf_1
XFILLER_0_13_88 VGND VGND VPWR VPWR sky130_fd_sc_hd__decap_8
XTAP_TAPCELL_ROW_20_168 VGND VPWR sky130_fd_sc_hd__tapvpwrvgnd_1
XTAP_TAPCELL_ROW_5_111 VGND VPWR sky130_fd_sc_hd__tapvpwrvgnd_1
XTAP_TAPCELL_ROW_28_202 VGND VPWR sky130_fd_sc_hd__tapvpwrvgnd_1
X_411_ memblk.FIFO\[0\]\[8\] memblk.FIFO\[1\]\[8\] memblk.FIFO\[2\]\[8\] memblk.FIFO\[3\]\[8\]
+ _149_ _150_ VGND VGND VPWR VPWR _154_ sky130_fd_sc_hd__mux4_1
XTAP_TAPCELL_ROW_11_135 VGND VPWR sky130_fd_sc_hd__tapvpwrvgnd_1
X_609_ net20 net120 _263_ VGND VGND VPWR VPWR _267_ sky130_fd_sc_hd__mux2_1
XTAP_TAPCELL_ROW_34_227 VGND VPWR sky130_fd_sc_hd__tapvpwrvgnd_1
XFILLER_0_37_129 VGND VGND VPWR VPWR sky130_fd_sc_hd__fill_1
X_891_ clknet_4_13_0_Clk _081_ VGND VGND VPWR VPWR memblk.FIFO\[1\]\[15\] sky130_fd_sc_hd__dfxtp_1
XPHY_EDGE_ROW_24_Left_66 VGND VGND VPWR VPWR sky130_fd_sc_hd__decap_3
XFILLER_0_27_173 VGND VGND VPWR VPWR sky130_fd_sc_hd__fill_2
Xclkload0 clknet_4_1_0_Clk VGND VGND VPWR VPWR clkload0/Y sky130_fd_sc_hd__clkinv_1
X_943_ clknet_4_0_0_Clk _133_ net75 VGND VGND VPWR VPWR net70 sky130_fd_sc_hd__dfstp_1
X_874_ clknet_4_3_0_Clk _064_ VGND VGND VPWR VPWR memblk.FIFO\[0\]\[30\] sky130_fd_sc_hd__dfxtp_1
XFILLER_0_15_110 VGND VGND VPWR VPWR sky130_fd_sc_hd__fill_2
XFILLER_0_15_165 VGND VGND VPWR VPWR sky130_fd_sc_hd__decap_3
Xhold45 memblk.FIFO\[0\]\[27\] VGND VGND VPWR VPWR net120 sky130_fd_sc_hd__dlygate4sd3_1
Xhold34 memblk.FIFO\[3\]\[29\] VGND VGND VPWR VPWR net109 sky130_fd_sc_hd__dlygate4sd3_1
Xhold56 memblk.FIFO\[3\]\[5\] VGND VGND VPWR VPWR net131 sky130_fd_sc_hd__dlygate4sd3_1
Xhold12 memblk.FIFO\[0\]\[9\] VGND VGND VPWR VPWR net87 sky130_fd_sc_hd__dlygate4sd3_1
Xhold23 memblk.FIFO\[3\]\[17\] VGND VGND VPWR VPWR net98 sky130_fd_sc_hd__dlygate4sd3_1
XFILLER_0_38_213 VPWR VGND VPWR VGND sky130_ef_sc_hd__decap_12
Xhold78 memblk.FIFO\[1\]\[7\] VGND VGND VPWR VPWR net153 sky130_fd_sc_hd__dlygate4sd3_1
X_590_ net10 net201 _256_ VGND VGND VPWR VPWR _257_ sky130_fd_sc_hd__mux2_1
Xhold67 memblk.FIFO\[2\]\[30\] VGND VGND VPWR VPWR net142 sky130_fd_sc_hd__dlygate4sd3_1
Xhold89 memblk.FIFO\[2\]\[21\] VGND VGND VPWR VPWR net164 sky130_fd_sc_hd__dlygate4sd3_1
XFILLER_0_21_113 VGND VGND VPWR VPWR sky130_fd_sc_hd__decap_8
X_788_ net71 net35 _225_ _371_ VGND VGND VPWR VPWR _372_ sky130_fd_sc_hd__a31o_1
X_926_ clknet_4_9_0_Clk _116_ VGND VGND VPWR VPWR memblk.FIFO\[3\]\[18\] sky130_fd_sc_hd__dfxtp_1
X_857_ clknet_4_13_0_Clk _047_ VGND VGND VPWR VPWR memblk.FIFO\[0\]\[13\] sky130_fd_sc_hd__dfxtp_1
XFILLER_0_32_65 VGND VGND VPWR VPWR sky130_fd_sc_hd__fill_1
XPHY_EDGE_ROW_11_Left_53 VGND VGND VPWR VPWR sky130_fd_sc_hd__decap_3
Xoutput57 net57 VGND VGND VPWR VPWR F_Data[28] sky130_fd_sc_hd__buf_2
Xclkbuf_4_2_0_Clk clknet_0_Clk VGND VGND VPWR VPWR clknet_4_2_0_Clk sky130_fd_sc_hd__clkbuf_8
Xoutput46 net46 VGND VGND VPWR VPWR F_Data[18] sky130_fd_sc_hd__buf_2
X_642_ _229_ VGND VGND VPWR VPWR _284_ sky130_fd_sc_hd__buf_2
X_711_ net96 net2 _317_ VGND VGND VPWR VPWR _322_ sky130_fd_sc_hd__mux2_1
Xoutput68 net68 VGND VGND VPWR VPWR F_Data[9] sky130_fd_sc_hd__buf_2
XPHY_EDGE_ROW_19_Right_19 VGND VGND VPWR VPWR sky130_fd_sc_hd__decap_3
X_573_ _247_ VGND VGND VPWR VPWR _044_ sky130_fd_sc_hd__clkbuf_1
XFILLER_0_26_205 VGND VGND VPWR VPWR sky130_fd_sc_hd__fill_2
XPHY_EDGE_ROW_28_Right_28 VGND VGND VPWR VPWR sky130_fd_sc_hd__decap_3
XPHY_EDGE_ROW_37_Right_37 VGND VGND VPWR VPWR sky130_fd_sc_hd__decap_3
X_909_ clknet_4_2_0_Clk _099_ VGND VGND VPWR VPWR memblk.FIFO\[3\]\[1\] sky130_fd_sc_hd__dfxtp_1
XFILLER_0_27_65 VGND VGND VPWR VPWR sky130_fd_sc_hd__decap_6
XFILLER_0_7_75 VGND VGND VPWR VPWR sky130_fd_sc_hd__fill_1
XTAP_TAPCELL_ROW_8_120 VGND VPWR sky130_fd_sc_hd__tapvpwrvgnd_1
XFILLER_0_31_241 VGND VGND VPWR VPWR sky130_fd_sc_hd__fill_1
X_625_ net26 net195 _230_ VGND VGND VPWR VPWR _275_ sky130_fd_sc_hd__mux2_1
X_556_ _238_ VGND VGND VPWR VPWR _036_ sky130_fd_sc_hd__clkbuf_1
XFILLER_0_13_12 VGND VGND VPWR VPWR sky130_fd_sc_hd__fill_2
XTAP_TAPCELL_ROW_14_144 VGND VPWR sky130_fd_sc_hd__tapvpwrvgnd_1
X_487_ net32 net103 _193_ VGND VGND VPWR VPWR _197_ sky130_fd_sc_hd__mux2_1
XTAP_TAPCELL_ROW_37_236 VGND VPWR sky130_fd_sc_hd__tapvpwrvgnd_1
XTAP_TAPCELL_ROW_20_169 VGND VPWR sky130_fd_sc_hd__tapvpwrvgnd_1
Xhold120 memblk.FIFO\[1\]\[3\] VGND VGND VPWR VPWR net195 sky130_fd_sc_hd__dlygate4sd3_1
XTAP_TAPCELL_ROW_28_203 VGND VPWR sky130_fd_sc_hd__tapvpwrvgnd_1
X_410_ _153_ VGND VGND VPWR VPWR net66 sky130_fd_sc_hd__clkbuf_1
X_608_ _266_ VGND VGND VPWR VPWR _060_ sky130_fd_sc_hd__clkbuf_1
XFILLER_0_24_22 VGND VGND VPWR VPWR sky130_fd_sc_hd__decap_6
XFILLER_0_40_76 VGND VGND VPWR VPWR sky130_fd_sc_hd__fill_2
X_539_ _225_ memblk.wr_addr\[0\] VGND VGND VPWR VPWR _226_ sky130_fd_sc_hd__or2_1
X_890_ clknet_4_13_0_Clk _080_ VGND VGND VPWR VPWR memblk.FIFO\[1\]\[14\] sky130_fd_sc_hd__dfxtp_1
XFILLER_0_10_24 VGND VGND VPWR VPWR sky130_fd_sc_hd__decap_4
XFILLER_0_2_241 VGND VGND VPWR VPWR sky130_fd_sc_hd__decap_4
XPHY_EDGE_ROW_41_Left_83 VGND VGND VPWR VPWR sky130_fd_sc_hd__decap_3
Xclkload1 clknet_4_2_0_Clk VGND VGND VPWR VPWR clkload1/Y sky130_fd_sc_hd__clkinv_1
XFILLER_0_18_141 VGND VGND VPWR VPWR sky130_fd_sc_hd__fill_1
X_942_ clknet_4_2_0_Clk _132_ net75 VGND VGND VPWR VPWR net73 sky130_fd_sc_hd__dfstp_1
X_873_ clknet_4_9_0_Clk _063_ VGND VGND VPWR VPWR memblk.FIFO\[0\]\[29\] sky130_fd_sc_hd__dfxtp_1
XFILLER_0_1_55 VGND VGND VPWR VPWR sky130_fd_sc_hd__fill_1
XFILLER_0_15_177 VPWR VGND VPWR VGND sky130_ef_sc_hd__decap_12
Xhold46 memblk.FIFO\[0\]\[7\] VGND VGND VPWR VPWR net121 sky130_fd_sc_hd__dlygate4sd3_1
Xhold24 memblk.FIFO\[3\]\[28\] VGND VGND VPWR VPWR net99 sky130_fd_sc_hd__dlygate4sd3_1
Xhold79 memblk.FIFO\[1\]\[28\] VGND VGND VPWR VPWR net154 sky130_fd_sc_hd__dlygate4sd3_1
Xhold35 memblk.FIFO\[1\]\[4\] VGND VGND VPWR VPWR net110 sky130_fd_sc_hd__dlygate4sd3_1