*SPEF "ieee 1481-1999"
*DESIGN "FIFO_Model"
*DATE "17:29:30 Friday August 01, 2025"
*VENDOR "The OpenROAD Project"
*PROGRAM "OpenROAD"
*VERSION "b16bda7e82721d10566ff7e2b68f1ff0be9f9e38"
*DESIGN_FLOW "NAME_SCOPE LOCAL" "PIN_CAP NONE"
*DIVIDER /
*DELIMITER :
*BUS_DELIMITER []
*T_UNIT 1 NS
*C_UNIT 1 PF
*R_UNIT 1 OHM
*L_UNIT 1 HENRY

*NAME_MAP
*1 Clk
*2 Data_In[0]
*3 Data_In[10]
*4 Data_In[11]
*5 Data_In[12]
*6 Data_In[13]
*7 Data_In[14]
*8 Data_In[15]
*9 Data_In[16]
*10 Data_In[17]
*11 Data_In[18]
*12 Data_In[19]
*13 Data_In[1]
*14 Data_In[20]
*15 Data_In[21]
*16 Data_In[22]
*17 Data_In[23]
*18 Data_In[24]
*19 Data_In[25]
*20 Data_In[26]
*21 Data_In[27]
*22 Data_In[28]
*23 Data_In[29]
*24 Data_In[2]
*25 Data_In[30]
*26 Data_In[31]
*27 Data_In[3]
*28 Data_In[4]
*29 Data_In[5]
*30 Data_In[6]
*31 Data_In[7]
*32 Data_In[8]
*33 Data_In[9]
*34 FClrN
*35 FInN
*36 FOutN
*37 F_Data[0]
*38 F_Data[10]
*39 F_Data[11]
*40 F_Data[12]
*41 F_Data[13]
*42 F_Data[14]
*43 F_Data[15]
*44 F_Data[16]
*45 F_Data[17]
*46 F_Data[18]
*47 F_Data[19]
*48 F_Data[1]
*49 F_Data[20]
*50 F_Data[21]
*51 F_Data[22]
*52 F_Data[23]
*53 F_Data[24]
*54 F_Data[25]
*55 F_Data[26]
*56 F_Data[27]
*57 F_Data[28]
*58 F_Data[29]
*59 F_Data[2]
*60 F_Data[30]
*61 F_Data[31]
*62 F_Data[3]
*63 F_Data[4]
*64 F_Data[5]
*65 F_Data[6]
*66 F_Data[7]
*67 F_Data[8]
*68 F_Data[9]
*69 F_EmptyN
*70 F_FirstN
*71 F_FullN
*72 F_LastN
*73 F_SLastN
*74 RstN
*77 _000_
*78 _001_
*79 _002_
*80 _003_
*81 _004_
*82 _005_
*83 _006_
*84 _007_
*85 _008_
*86 _009_
*87 _010_
*88 _011_
*89 _012_
*90 _013_
*91 _014_
*92 _015_
*93 _016_
*94 _017_
*95 _018_
*96 _019_
*97 _020_
*98 _021_
*99 _022_
*100 _023_
*101 _024_
*102 _025_
*103 _026_
*104 _027_
*105 _028_
*106 _029_
*107 _030_
*108 _031_
*109 _032_
*110 _033_
*111 _034_
*112 _035_
*113 _036_
*114 _037_
*115 _038_
*116 _039_
*117 _040_
*118 _041_
*119 _042_
*120 _043_
*121 _044_
*122 _045_
*123 _046_
*124 _047_
*125 _048_
*126 _049_
*127 _050_
*128 _051_
*129 _052_
*130 _053_
*131 _054_
*132 _055_
*133 _056_
*134 _057_
*135 _058_
*136 _059_
*137 _060_
*138 _061_
*139 _062_
*140 _063_
*141 _064_
*142 _065_
*143 _066_
*144 _067_
*145 _068_
*146 _069_
*147 _070_
*148 _071_
*149 _072_
*150 _073_
*151 _074_
*152 _075_
*153 _076_
*154 _077_
*155 _078_
*156 _079_
*157 _080_
*158 _081_
*159 _082_
*160 _083_
*161 _084_
*162 _085_
*163 _086_
*164 _087_
*165 _088_
*166 _089_
*167 _090_
*168 _091_
*169 _092_
*170 _093_
*171 _094_
*172 _095_
*173 _096_
*174 _097_
*175 _098_
*176 _099_
*177 _100_
*178 _101_
*179 _102_
*180 _103_
*181 _104_
*182 _105_
*183 _106_
*184 _107_
*185 _108_
*186 _109_
*187 _110_
*188 _111_
*189 _112_
*190 _113_
*191 _114_
*192 _115_
*193 _116_
*194 _117_
*195 _118_
*196 _119_
*197 _120_
*198 _121_
*199 _122_
*200 _123_
*201 _124_
*202 _125_
*203 _126_
*204 _127_
*205 _128_
*206 _129_
*207 _130_
*208 _131_
*209 _132_
*210 _133_
*211 _134_
*212 _135_
*213 _136_
*214 _137_
*215 _138_
*216 _139_
*217 _140_
*218 _141_
*219 _142_
*220 _143_
*221 _144_
*222 _145_
*223 _146_
*224 _147_
*225 _148_
*226 _149_
*227 _150_
*228 _151_
*229 _152_
*230 _153_
*231 _154_
*232 _155_
*233 _156_
*234 _157_
*235 _158_
*236 _159_
*237 _160_
*238 _161_
*239 _162_
*240 _163_
*241 _164_
*242 _165_
*243 _166_
*244 _167_
*245 _168_
*246 _169_
*247 _170_
*248 _171_
*249 _172_
*250 _173_
*251 _174_
*252 _175_
*253 _176_
*254 _177_
*255 _178_
*256 _179_
*257 _180_
*258 _181_
*259 _182_
*260 _183_
*261 _184_
*262 _185_
*263 _186_
*264 _187_
*265 _188_
*266 _189_
*267 _190_
*268 _191_
*269 _192_
*270 _193_
*271 _194_
*272 _195_
*273 _196_
*274 _197_
*275 _198_
*276 _199_
*277 _200_
*278 _201_
*279 _202_
*280 _203_
*281 _204_
*282 _205_
*283 _206_
*284 _207_
*285 _208_
*286 _209_
*287 _210_
*288 _211_
*289 _212_
*290 _213_
*291 _214_
*292 _215_
*293 _216_
*294 _217_
*295 _218_
*296 _219_
*297 _220_
*298 _221_
*299 _222_
*300 _223_
*301 _224_
*302 _225_
*303 _226_
*304 _227_
*305 _228_
*306 _229_
*307 _230_
*308 _231_
*309 _232_
*310 _233_
*311 _234_
*312 _235_
*313 _236_
*314 _237_
*315 _238_
*316 _239_
*317 _240_
*318 _241_
*319 _242_
*320 _243_
*321 _244_
*322 _245_
*323 _246_
*324 _247_
*325 _248_
*326 _249_
*327 _250_
*328 _251_
*329 _252_
*330 _253_
*331 _254_
*332 _255_
*333 _256_
*334 _257_
*335 _258_
*336 _259_
*337 _260_
*338 _261_
*339 _262_
*340 _263_
*341 _264_
*342 _265_
*343 _266_
*344 _267_
*345 _268_
*346 _269_
*347 _270_
*348 _271_
*349 _272_
*350 _273_
*351 _274_
*352 _275_
*353 _276_
*354 _277_
*355 _278_
*356 _279_
*357 _280_
*358 _281_
*359 _282_
*360 _283_
*361 _284_
*362 _285_
*363 _286_
*364 _287_
*365 _288_
*366 _289_
*367 _290_
*368 _291_
*369 _292_
*370 _293_
*371 _294_
*372 _295_
*373 _296_
*374 _297_
*375 _298_
*376 _299_
*377 _300_
*378 _301_
*379 _302_
*380 _303_
*381 _304_
*382 _305_
*383 _306_
*384 _307_
*385 _308_
*386 _309_
*387 _310_
*388 _311_
*389 _312_
*390 _313_
*391 _314_
*392 _315_
*393 _316_
*394 _317_
*395 _318_
*396 _319_
*397 _320_
*398 _321_
*399 _322_
*400 _323_
*401 _324_
*402 _325_
*403 _326_
*404 _327_
*405 _328_
*406 _329_
*407 _330_
*408 _331_
*409 _332_
*410 _333_
*411 _334_
*412 _335_
*413 _336_
*414 _337_
*415 _338_
*416 _339_
*417 _340_
*418 _341_
*419 _342_
*420 _343_
*421 _344_
*422 _345_
*423 _346_
*424 _347_
*425 _348_
*426 _349_
*427 _350_
*428 _351_
*429 _352_
*430 _353_
*431 _354_
*432 _355_
*433 _356_
*434 _357_
*435 _358_
*436 _359_
*437 _360_
*438 _361_
*439 _362_
*440 _363_
*441 _364_
*442 _365_
*443 _366_
*444 _367_
*445 _368_
*446 _369_
*447 _370_
*448 _371_
*449 _372_
*450 _373_
*451 _374_
*452 _375_
*453 _376_
*454 _377_
*455 _378_
*456 _379_
*457 _380_
*458 _381_
*459 _382_
*460 _383_
*461 _384_
*462 _385_
*463 _386_
*464 _387_
*465 _388_
*466 clknet_0_Clk
*467 clknet_4_0_0_Clk
*468 clknet_4_10_0_Clk
*469 clknet_4_11_0_Clk
*470 clknet_4_12_0_Clk
*471 clknet_4_13_0_Clk
*472 clknet_4_14_0_Clk
*473 clknet_4_15_0_Clk
*474 clknet_4_1_0_Clk
*475 clknet_4_2_0_Clk
*476 clknet_4_3_0_Clk
*477 clknet_4_4_0_Clk
*478 clknet_4_5_0_Clk
*479 clknet_4_6_0_Clk
*480 clknet_4_7_0_Clk
*481 clknet_4_8_0_Clk
*482 clknet_4_9_0_Clk
*483 fcounter\[0\]
*484 fcounter\[1\]
*485 fcounter\[2\]
*486 memblk\.FIFO\[0\]\[0\]
*487 memblk\.FIFO\[0\]\[10\]
*488 memblk\.FIFO\[0\]\[11\]
*489 memblk\.FIFO\[0\]\[12\]
*490 memblk\.FIFO\[0\]\[13\]
*491 memblk\.FIFO\[0\]\[14\]
*492 memblk\.FIFO\[0\]\[15\]
*493 memblk\.FIFO\[0\]\[16\]
*494 memblk\.FIFO\[0\]\[17\]
*495 memblk\.FIFO\[0\]\[18\]
*496 memblk\.FIFO\[0\]\[19\]
*497 memblk\.FIFO\[0\]\[1\]
*498 memblk\.FIFO\[0\]\[20\]
*499 memblk\.FIFO\[0\]\[21\]
*500 memblk\.FIFO\[0\]\[22\]
*501 memblk\.FIFO\[0\]\[23\]
*502 memblk\.FIFO\[0\]\[24\]
*503 memblk\.FIFO\[0\]\[25\]
*504 memblk\.FIFO\[0\]\[26\]
*505 memblk\.FIFO\[0\]\[27\]
*506 memblk\.FIFO\[0\]\[28\]
*507 memblk\.FIFO\[0\]\[29\]
*508 memblk\.FIFO\[0\]\[2\]
*509 memblk\.FIFO\[0\]\[30\]
*510 memblk\.FIFO\[0\]\[31\]
*511 memblk\.FIFO\[0\]\[3\]
*512 memblk\.FIFO\[0\]\[4\]
*513 memblk\.FIFO\[0\]\[5\]
*514 memblk\.FIFO\[0\]\[6\]
*515 memblk\.FIFO\[0\]\[7\]
*516 memblk\.FIFO\[0\]\[8\]
*517 memblk\.FIFO\[0\]\[9\]
*518 memblk\.FIFO\[1\]\[0\]
*519 memblk\.FIFO\[1\]\[10\]
*520 memblk\.FIFO\[1\]\[11\]
*521 memblk\.FIFO\[1\]\[12\]
*522 memblk\.FIFO\[1\]\[13\]
*523 memblk\.FIFO\[1\]\[14\]
*524 memblk\.FIFO\[1\]\[15\]
*525 memblk\.FIFO\[1\]\[16\]
*526 memblk\.FIFO\[1\]\[17\]
*527 memblk\.FIFO\[1\]\[18\]
*528 memblk\.FIFO\[1\]\[19\]
*529 memblk\.FIFO\[1\]\[1\]
*530 memblk\.FIFO\[1\]\[20\]
*531 memblk\.FIFO\[1\]\[21\]
*532 memblk\.FIFO\[1\]\[22\]
*533 memblk\.FIFO\[1\]\[23\]
*534 memblk\.FIFO\[1\]\[24\]
*535 memblk\.FIFO\[1\]\[25\]
*536 memblk\.FIFO\[1\]\[26\]
*537 memblk\.FIFO\[1\]\[27\]
*538 memblk\.FIFO\[1\]\[28\]
*539 memblk\.FIFO\[1\]\[29\]
*540 memblk\.FIFO\[1\]\[2\]
*541 memblk\.FIFO\[1\]\[30\]
*542 memblk\.FIFO\[1\]\[31\]
*543 memblk\.FIFO\[1\]\[3\]
*544 memblk\.FIFO\[1\]\[4\]
*545 memblk\.FIFO\[1\]\[5\]
*546 memblk\.FIFO\[1\]\[6\]
*547 memblk\.FIFO\[1\]\[7\]
*548 memblk\.FIFO\[1\]\[8\]
*549 memblk\.FIFO\[1\]\[9\]
*550 memblk\.FIFO\[2\]\[0\]
*551 memblk\.FIFO\[2\]\[10\]
*552 memblk\.FIFO\[2\]\[11\]
*553 memblk\.FIFO\[2\]\[12\]
*554 memblk\.FIFO\[2\]\[13\]
*555 memblk\.FIFO\[2\]\[14\]
*556 memblk\.FIFO\[2\]\[15\]
*557 memblk\.FIFO\[2\]\[16\]
*558 memblk\.FIFO\[2\]\[17\]
*559 memblk\.FIFO\[2\]\[18\]
*560 memblk\.FIFO\[2\]\[19\]
*561 memblk\.FIFO\[2\]\[1\]
*562 memblk\.FIFO\[2\]\[20\]
*563 memblk\.FIFO\[2\]\[21\]
*564 memblk\.FIFO\[2\]\[22\]
*565 memblk\.FIFO\[2\]\[23\]
*566 memblk\.FIFO\[2\]\[24\]
*567 memblk\.FIFO\[2\]\[25\]
*568 memblk\.FIFO\[2\]\[26\]
*569 memblk\.FIFO\[2\]\[27\]
*570 memblk\.FIFO\[2\]\[28\]
*571 memblk\.FIFO\[2\]\[29\]
*572 memblk\.FIFO\[2\]\[2\]
*573 memblk\.FIFO\[2\]\[30\]
*574 memblk\.FIFO\[2\]\[31\]
*575 memblk\.FIFO\[2\]\[3\]
*576 memblk\.FIFO\[2\]\[4\]
*577 memblk\.FIFO\[2\]\[5\]
*578 memblk\.FIFO\[2\]\[6\]
*579 memblk\.FIFO\[2\]\[7\]
*580 memblk\.FIFO\[2\]\[8\]
*581 memblk\.FIFO\[2\]\[9\]
*582 memblk\.FIFO\[3\]\[0\]
*583 memblk\.FIFO\[3\]\[10\]
*584 memblk\.FIFO\[3\]\[11\]
*585 memblk\.FIFO\[3\]\[12\]
*586 memblk\.FIFO\[3\]\[13\]
*587 memblk\.FIFO\[3\]\[14\]
*588 memblk\.FIFO\[3\]\[15\]
*589 memblk\.FIFO\[3\]\[16\]
*590 memblk\.FIFO\[3\]\[17\]
*591 memblk\.FIFO\[3\]\[18\]
*592 memblk\.FIFO\[3\]\[19\]
*593 memblk\.FIFO\[3\]\[1\]
*594 memblk\.FIFO\[3\]\[20\]
*595 memblk\.FIFO\[3\]\[21\]
*596 memblk\.FIFO\[3\]\[22\]
*597 memblk\.FIFO\[3\]\[23\]
*598 memblk\.FIFO\[3\]\[24\]
*599 memblk\.FIFO\[3\]\[25\]
*600 memblk\.FIFO\[3\]\[26\]
*601 memblk\.FIFO\[3\]\[27\]
*602 memblk\.FIFO\[3\]\[28\]
*603 memblk\.FIFO\[3\]\[29\]
*604 memblk\.FIFO\[3\]\[2\]
*605 memblk\.FIFO\[3\]\[30\]
*606 memblk\.FIFO\[3\]\[31\]
*607 memblk\.FIFO\[3\]\[3\]
*608 memblk\.FIFO\[3\]\[4\]
*609 memblk\.FIFO\[3\]\[5\]
*610 memblk\.FIFO\[3\]\[6\]
*611 memblk\.FIFO\[3\]\[7\]
*612 memblk\.FIFO\[3\]\[8\]
*613 memblk\.FIFO\[3\]\[9\]
*614 memblk\.rd_addr\[0\]
*615 memblk\.rd_addr\[1\]
*616 memblk\.wr_addr\[0\]
*617 memblk\.wr_addr\[1\]
*618 net1
*619 net10
*620 net100
*621 net101
*622 net102
*623 net103
*624 net104
*625 net105
*626 net106
*627 net107
*628 net108
*629 net109
*630 net11
*631 net110
*632 net111
*633 net112
*634 net113
*635 net114
*636 net115
*637 net116
*638 net117
*639 net118
*640 net119
*641 net12
*642 net120
*643 net121
*644 net122
*645 net123
*646 net124
*647 net125
*648 net126
*649 net127
*650 net128
*651 net129
*652 net13
*653 net130
*654 net131
*655 net132
*656 net133
*657 net134
*658 net135
*659 net136
*660 net137
*661 net138
*662 net139
*663 net14
*664 net140
*665 net141
*666 net142
*667 net143
*668 net144
*669 net145
*670 net146
*671 net147
*672 net148
*673 net149
*674 net15
*675 net150
*676 net151
*677 net152
*678 net153
*679 net154
*680 net155
*681 net156
*682 net157
*683 net158
*684 net159
*685 net16
*686 net160
*687 net161
*688 net162
*689 net163
*690 net164
*691 net165
*692 net166
*693 net167
*694 net168
*695 net169
*696 net17
*697 net170
*698 net171
*699 net172
*700 net173
*701 net174
*702 net175
*703 net176
*704 net177
*705 net178
*706 net179
*707 net18
*708 net180
*709 net181
*710 net182
*711 net183
*712 net184
*713 net185
*714 net186
*715 net187
*716 net188
*717 net189
*718 net19
*719 net190
*720 net191
*721 net192
*722 net193
*723 net194
*724 net195
*725 net196
*726 net197
*727 net198
*728 net199
*729 net2
*730 net20
*731 net200
*732 net201
*733 net202
*734 net203
*735 net204
*736 net21
*737 net22
*738 net23
*739 net24
*740 net25
*741 net26
*742 net27
*743 net28
*744 net29
*745 net3
*746 net30
*747 net31
*748 net32
*749 net33
*750 net34
*751 net35
*752 net36
*753 net37
*754 net38
*755 net39
*756 net4
*757 net40
*758 net41
*759 net42
*760 net43
*761 net44
*762 net45
*763 net46
*764 net47
*765 net48
*766 net49
*767 net5
*768 net50
*769 net51
*770 net52
*771 net53
*772 net54
*773 net55
*774 net56
*775 net57
*776 net58
*777 net59
*778 net6
*779 net60
*780 net61
*781 net62
*782 net63
*783 net64
*784 net65
*785 net66
*786 net67
*787 net68
*788 net69
*789 net7
*790 net70
*791 net71
*792 net72
*793 net73
*794 net74
*795 net75
*796 net76
*797 net77
*798 net78
*799 net79
*800 net8
*801 net80
*802 net81
*803 net82
*804 net83
*805 net84
*806 net85
*807 net86
*808 net87
*809 net88
*810 net89
*811 net9
*812 net90
*813 net91
*814 net92
*815 net93
*816 net94
*817 net95
*818 net96
*819 net97
*820 net98
*821 net99
*822 FILLER_0_0_109
*823 FILLER_0_0_113
*824 FILLER_0_0_118
*825 FILLER_0_0_128
*826 FILLER_0_0_141
*827 FILLER_0_0_146
*828 FILLER_0_0_15
*829 FILLER_0_0_156
*830 FILLER_0_0_160
*831 FILLER_0_0_167
*832 FILLER_0_0_169
*833 FILLER_0_0_177
*834 FILLER_0_0_184
*835 FILLER_0_0_188
*836 FILLER_0_0_197
*837 FILLER_0_0_202
*838 FILLER_0_0_214
*839 FILLER_0_0_222
*840 FILLER_0_0_231
*841 FILLER_0_0_243
*842 FILLER_0_0_27
*843 FILLER_0_0_29
*844 FILLER_0_0_3
*845 FILLER_0_0_41
*846 FILLER_0_0_49
*847 FILLER_0_0_55
*848 FILLER_0_0_57
*849 FILLER_0_0_65
*850 FILLER_0_0_85
*851 FILLER_0_10_131
*852 FILLER_0_10_135
*853 FILLER_0_10_149
*854 FILLER_0_10_161
*855 FILLER_0_10_173
*856 FILLER_0_10_177
*857 FILLER_0_10_189
*858 FILLER_0_10_195
*859 FILLER_0_10_226
*860 FILLER_0_10_238
*861 FILLER_0_10_24
*862 FILLER_0_10_3
*863 FILLER_0_10_7
*864 FILLER_0_10_75
*865 FILLER_0_10_83
*866 FILLER_0_10_85
*867 FILLER_0_10_97
*868 FILLER_0_11_102
*869 FILLER_0_11_110
*870 FILLER_0_11_113
*871 FILLER_0_11_125
*872 FILLER_0_11_137
*873 FILLER_0_11_155
*874 FILLER_0_11_163
*875 FILLER_0_11_169
*876 FILLER_0_11_219
*877 FILLER_0_11_223
*878 FILLER_0_11_225
*879 FILLER_0_11_237
*880 FILLER_0_11_245
*881 FILLER_0_11_27
*882 FILLER_0_11_52
*883 FILLER_0_11_65
*884 FILLER_0_11_7
*885 FILLER_0_11_76
*886 FILLER_0_11_87
*887 FILLER_0_11_94
*888 FILLER_0_12_100
*889 FILLER_0_12_122
*890 FILLER_0_12_141
*891 FILLER_0_12_15
*892 FILLER_0_12_194
*893 FILLER_0_12_213
*894 FILLER_0_12_231
*895 FILLER_0_12_237
*896 FILLER_0_12_26
*897 FILLER_0_12_37
*898 FILLER_0_12_47
*899 FILLER_0_12_6
*900 FILLER_0_12_61
*901 FILLER_0_12_73
*902 FILLER_0_12_80
*903 FILLER_0_12_85
*904 FILLER_0_13_104
*905 FILLER_0_13_113
*906 FILLER_0_13_12
*907 FILLER_0_13_121
*908 FILLER_0_13_164
*909 FILLER_0_13_178
*910 FILLER_0_13_215
*911 FILLER_0_13_220
*912 FILLER_0_13_31
*913 FILLER_0_13_41
*914 FILLER_0_13_6
*915 FILLER_0_13_66
*916 FILLER_0_13_88
*917 FILLER_0_13_96
*918 FILLER_0_14_119
*919 FILLER_0_14_190
*920 FILLER_0_14_197
*921 FILLER_0_14_209
*922 FILLER_0_14_3
*923 FILLER_0_14_45
*924 FILLER_0_14_93
*925 FILLER_0_15_110
*926 FILLER_0_15_113
*927 FILLER_0_15_125
*928 FILLER_0_15_130
*929 FILLER_0_15_142
*930 FILLER_0_15_148
*931 FILLER_0_15_160
*932 FILLER_0_15_165
*933 FILLER_0_15_177
*934 FILLER_0_15_189
*935 FILLER_0_15_197
*936 FILLER_0_15_20
*937 FILLER_0_15_225
*938 FILLER_0_15_245
*939 FILLER_0_15_3
*940 FILLER_0_15_60
*941 FILLER_0_15_98
*942 FILLER_0_16_113
*943 FILLER_0_16_124
*944 FILLER_0_16_128
*945 FILLER_0_16_145
*946 FILLER_0_16_151
*947 FILLER_0_16_156
*948 FILLER_0_16_164
*949 FILLER_0_16_169
*950 FILLER_0_16_184
*951 FILLER_0_16_193
*952 FILLER_0_16_197
*953 FILLER_0_16_201
*954 FILLER_0_16_23
*955 FILLER_0_16_244
*956 FILLER_0_16_45
*957 FILLER_0_16_79
*958 FILLER_0_17_122
*959 FILLER_0_17_169
*960 FILLER_0_17_18
*961 FILLER_0_17_198
*962 FILLER_0_17_210
*963 FILLER_0_17_234
*964 FILLER_0_17_27
*965 FILLER_0_17_48
*966 FILLER_0_17_57
*967 FILLER_0_17_6
*968 FILLER_0_17_61
*969 FILLER_0_17_70
*970 FILLER_0_18_141
*971 FILLER_0_18_18
*972 FILLER_0_18_221
*973 FILLER_0_18_24
*974 FILLER_0_18_241
*975 FILLER_0_18_32
*976 FILLER_0_18_44
*977 FILLER_0_18_56
*978 FILLER_0_18_6
*979 FILLER_0_18_68
*980 FILLER_0_18_80
*981 FILLER_0_18_85
*982 FILLER_0_19_132
*983 FILLER_0_19_140
*984 FILLER_0_19_162
*985 FILLER_0_19_47
*986 FILLER_0_19_7
*987 FILLER_0_19_81
*988 FILLER_0_19_86
*989 FILLER_0_19_90
*990 FILLER_0_19_94
*991 FILLER_0_1_110
*992 FILLER_0_1_116
*993 FILLER_0_1_128
*994 FILLER_0_1_15
*995 FILLER_0_1_162
*996 FILLER_0_1_215
*997 FILLER_0_1_223
*998 FILLER_0_1_225
*999 FILLER_0_1_237
*1000 FILLER_0_1_245
*1001 FILLER_0_1_27
*1002 FILLER_0_1_3
*1003 FILLER_0_1_39
*1004 FILLER_0_1_51
*1005 FILLER_0_1_55
*1006 FILLER_0_1_57
*1007 FILLER_0_1_80
*1008 FILLER_0_1_95
*1009 FILLER_0_20_105
*1010 FILLER_0_20_112
*1011 FILLER_0_20_124
*1012 FILLER_0_20_138
*1013 FILLER_0_20_141
*1014 FILLER_0_20_149
*1015 FILLER_0_20_153
*1016 FILLER_0_20_172
*1017 FILLER_0_20_180
*1018 FILLER_0_20_192
*1019 FILLER_0_20_197
*1020 FILLER_0_20_203
*1021 FILLER_0_20_213
*1022 FILLER_0_20_3
*1023 FILLER_0_20_50
*1024 FILLER_0_20_77
*1025 FILLER_0_20_83
*1026 FILLER_0_20_85
*1027 FILLER_0_20_97
*1028 FILLER_0_21_100
*1029 FILLER_0_21_105
*1030 FILLER_0_21_111
*1031 FILLER_0_21_113
*1032 FILLER_0_21_121
*1033 FILLER_0_21_152
*1034 FILLER_0_21_156
*1035 FILLER_0_21_173
*1036 FILLER_0_21_185
*1037 FILLER_0_21_197
*1038 FILLER_0_21_205
*1039 FILLER_0_21_21
*1040 FILLER_0_21_222
*1041 FILLER_0_21_245
*1042 FILLER_0_21_3
*1043 FILLER_0_21_57
*1044 FILLER_0_21_92
*1045 FILLER_0_22_119
*1046 FILLER_0_22_12
*1047 FILLER_0_22_123
*1048 FILLER_0_22_141
*1049 FILLER_0_22_174
*1050 FILLER_0_22_192
*1051 FILLER_0_22_208
*1052 FILLER_0_22_224
*1053 FILLER_0_22_23
*1054 FILLER_0_22_46
*1055 FILLER_0_22_51
*1056 FILLER_0_22_56
*1057 FILLER_0_22_7
*1058 FILLER_0_22_83
*1059 FILLER_0_22_97
*1060 FILLER_0_23_165
*1061 FILLER_0_23_18
*1062 FILLER_0_23_197
*1063 FILLER_0_23_223
*1064 FILLER_0_23_241
*1065 FILLER_0_23_28
*1066 FILLER_0_23_39
*1067 FILLER_0_23_48
*1068 FILLER_0_23_57
*1069 FILLER_0_23_6
*1070 FILLER_0_23_63
*1071 FILLER_0_24_101
*1072 FILLER_0_24_120
*1073 FILLER_0_24_138
*1074 FILLER_0_24_141
*1075 FILLER_0_24_18
*1076 FILLER_0_24_192
*1077 FILLER_0_24_197
*1078 FILLER_0_24_22
*1079 FILLER_0_24_38
*1080 FILLER_0_24_56
*1081 FILLER_0_24_6
*1082 FILLER_0_24_68
*1083 FILLER_0_24_82
*1084 FILLER_0_24_97
*1085 FILLER_0_25_102
*1086 FILLER_0_25_113
*1087 FILLER_0_25_125
*1088 FILLER_0_25_131
*1089 FILLER_0_25_143
*1090 FILLER_0_25_151
*1091 FILLER_0_25_165
*1092 FILLER_0_25_169
*1093 FILLER_0_25_192
*1094 FILLER_0_25_200
*1095 FILLER_0_25_223
*1096 FILLER_0_25_245
*1097 FILLER_0_25_6
*1098 FILLER_0_25_78
*1099 FILLER_0_25_90
*1100 FILLER_0_26_102
*1101 FILLER_0_26_108
*1102 FILLER_0_26_11
*1103 FILLER_0_26_112
*1104 FILLER_0_26_117
*1105 FILLER_0_26_129
*1106 FILLER_0_26_137
*1107 FILLER_0_26_150
*1108 FILLER_0_26_162
*1109 FILLER_0_26_171
*1110 FILLER_0_26_183
*1111 FILLER_0_26_195
*1112 FILLER_0_26_197
*1113 FILLER_0_26_205
*1114 FILLER_0_26_226
*1115 FILLER_0_26_245
*1116 FILLER_0_26_29
*1117 FILLER_0_26_62
*1118 FILLER_0_26_7
*1119 FILLER_0_26_85
*1120 FILLER_0_26_91
*1121 FILLER_0_26_96
*1122 FILLER_0_27_125
*1123 FILLER_0_27_131
*1124 FILLER_0_27_15
*1125 FILLER_0_27_160
*1126 FILLER_0_27_169
*1127 FILLER_0_27_173
*1128 FILLER_0_27_211
*1129 FILLER_0_27_225
*1130 FILLER_0_27_245
*1131 FILLER_0_27_27
*1132 FILLER_0_27_3
*1133 FILLER_0_27_39
*1134 FILLER_0_27_55
*1135 FILLER_0_27_65
*1136 FILLER_0_27_71
*1137 FILLER_0_27_95
*1138 FILLER_0_28_117
*1139 FILLER_0_28_138
*1140 FILLER_0_28_141
*1141 FILLER_0_28_15
*1142 FILLER_0_28_162
*1143 FILLER_0_28_193
*1144 FILLER_0_28_222
*1145 FILLER_0_28_240
*1146 FILLER_0_28_27
*1147 FILLER_0_28_29
*1148 FILLER_0_28_3
*1149 FILLER_0_28_41
*1150 FILLER_0_28_45
*1151 FILLER_0_28_62
*1152 FILLER_0_28_85
*1153 FILLER_0_29_113
*1154 FILLER_0_29_135
*1155 FILLER_0_29_15
*1156 FILLER_0_29_166
*1157 FILLER_0_29_180
*1158 FILLER_0_29_21
*1159 FILLER_0_29_222
*1160 FILLER_0_29_3
*1161 FILLER_0_29_47
*1162 FILLER_0_29_52
*1163 FILLER_0_29_57
*1164 FILLER_0_29_88
*1165 FILLER_0_2_114
*1166 FILLER_0_2_135
*1167 FILLER_0_2_141
*1168 FILLER_0_2_15
*1169 FILLER_0_2_194
*1170 FILLER_0_2_197
*1171 FILLER_0_2_229
*1172 FILLER_0_2_241
*1173 FILLER_0_2_245
*1174 FILLER_0_2_27
*1175 FILLER_0_2_29
*1176 FILLER_0_2_3
*1177 FILLER_0_2_41
*1178 FILLER_0_2_72
*1179 FILLER_0_30_104
*1180 FILLER_0_30_116
*1181 FILLER_0_30_127
*1182 FILLER_0_30_138
*1183 FILLER_0_30_152
*1184 FILLER_0_30_18
*1185 FILLER_0_30_182
*1186 FILLER_0_30_194
*1187 FILLER_0_30_206
*1188 FILLER_0_30_223
*1189 FILLER_0_30_24
*1190 FILLER_0_30_32
*1191 FILLER_0_30_42
*1192 FILLER_0_30_6
*1193 FILLER_0_30_81
*1194 FILLER_0_30_93
*1195 FILLER_0_31_116
*1196 FILLER_0_31_128
*1197 FILLER_0_31_146
*1198 FILLER_0_31_152
*1199 FILLER_0_31_156
*1200 FILLER_0_31_166
*1201 FILLER_0_31_172
*1202 FILLER_0_31_180
*1203 FILLER_0_31_189
*1204 FILLER_0_31_19
*1205 FILLER_0_31_197
*1206 FILLER_0_31_208
*1207 FILLER_0_31_214
*1208 FILLER_0_31_222
*1209 FILLER_0_31_241
*1210 FILLER_0_31_55
*1211 FILLER_0_31_7
*1212 FILLER_0_31_77
*1213 FILLER_0_31_89
*1214 FILLER_0_31_98
*1215 FILLER_0_32_107
*1216 FILLER_0_32_120
*1217 FILLER_0_32_132
*1218 FILLER_0_32_141
*1219 FILLER_0_32_15
*1220 FILLER_0_32_164
*1221 FILLER_0_32_168
*1222 FILLER_0_32_192
*1223 FILLER_0_32_200
*1224 FILLER_0_32_212
*1225 FILLER_0_32_224
*1226 FILLER_0_32_232
*1227 FILLER_0_32_27
*1228 FILLER_0_32_29
*1229 FILLER_0_32_3
*1230 FILLER_0_32_41
*1231 FILLER_0_32_53
*1232 FILLER_0_32_65
*1233 FILLER_0_32_69
*1234 FILLER_0_32_81
*1235 FILLER_0_32_94
*1236 FILLER_0_33_137
*1237 FILLER_0_33_15
*1238 FILLER_0_33_164
*1239 FILLER_0_33_169
*1240 FILLER_0_33_182
*1241 FILLER_0_33_212
*1242 FILLER_0_33_225
*1243 FILLER_0_33_237
*1244 FILLER_0_33_242
*1245 FILLER_0_33_3
*1246 FILLER_0_33_39
*1247 FILLER_0_33_90
*1248 FILLER_0_34_15
*1249 FILLER_0_34_165
*1250 FILLER_0_34_194
*1251 FILLER_0_34_222
*1252 FILLER_0_34_23
*1253 FILLER_0_34_234
*1254 FILLER_0_34_3
*1255 FILLER_0_34_32
*1256 FILLER_0_34_42
*1257 FILLER_0_34_88
*1258 FILLER_0_35_130
*1259 FILLER_0_35_149
*1260 FILLER_0_35_15
*1261 FILLER_0_35_167
*1262 FILLER_0_35_169
*1263 FILLER_0_35_186
*1264 FILLER_0_35_212
*1265 FILLER_0_35_223
*1266 FILLER_0_35_225
*1267 FILLER_0_35_237
*1268 FILLER_0_35_241
*1269 FILLER_0_35_3
*1270 FILLER_0_35_39
*1271 FILLER_0_35_55
*1272 FILLER_0_35_74
*1273 FILLER_0_35_91
*1274 FILLER_0_35_95
*1275 FILLER_0_36_105
*1276 FILLER_0_36_117
*1277 FILLER_0_36_129
*1278 FILLER_0_36_137
*1279 FILLER_0_36_15
*1280 FILLER_0_36_157
*1281 FILLER_0_36_171
*1282 FILLER_0_36_183
*1283 FILLER_0_36_187
*1284 FILLER_0_36_197
*1285 FILLER_0_36_201
*1286 FILLER_0_36_210
*1287 FILLER_0_36_222
*1288 FILLER_0_36_234
*1289 FILLER_0_36_27
*1290 FILLER_0_36_29
*1291 FILLER_0_36_3
*1292 FILLER_0_36_56
*1293 FILLER_0_36_75
*1294 FILLER_0_36_83
*1295 FILLER_0_37_111
*1296 FILLER_0_37_113
*1297 FILLER_0_37_125
*1298 FILLER_0_37_129
*1299 FILLER_0_37_139
*1300 FILLER_0_37_15
*1301 FILLER_0_37_169
*1302 FILLER_0_37_177
*1303 FILLER_0_37_189
*1304 FILLER_0_37_196
*1305 FILLER_0_37_208
*1306 FILLER_0_37_220
*1307 FILLER_0_37_225
*1308 FILLER_0_37_237
*1309 FILLER_0_37_245
*1310 FILLER_0_37_27
*1311 FILLER_0_37_3
*1312 FILLER_0_37_33
*1313 FILLER_0_37_54
*1314 FILLER_0_37_66
*1315 FILLER_0_37_98
*1316 FILLER_0_38_118
*1317 FILLER_0_38_136
*1318 FILLER_0_38_15
*1319 FILLER_0_38_166
*1320 FILLER_0_38_195
*1321 FILLER_0_38_213
*1322 FILLER_0_38_225
*1323 FILLER_0_38_237
*1324 FILLER_0_38_245
*1325 FILLER_0_38_27
*1326 FILLER_0_38_29
*1327 FILLER_0_38_3
*1328 FILLER_0_38_33
*1329 FILLER_0_38_76
*1330 FILLER_0_38_81
*1331 FILLER_0_38_94
*1332 FILLER_0_39_137
*1333 FILLER_0_39_15
*1334 FILLER_0_39_172
*1335 FILLER_0_39_225
*1336 FILLER_0_39_237
*1337 FILLER_0_39_245
*1338 FILLER_0_39_3
*1339 FILLER_0_39_42
*1340 FILLER_0_39_73
*1341 FILLER_0_3_133
*1342 FILLER_0_3_15
*1343 FILLER_0_3_166
*1344 FILLER_0_3_197
*1345 FILLER_0_3_222
*1346 FILLER_0_3_233
*1347 FILLER_0_3_245
*1348 FILLER_0_3_27
*1349 FILLER_0_3_3
*1350 FILLER_0_3_39
*1351 FILLER_0_3_47
*1352 FILLER_0_3_51
*1353 FILLER_0_3_55
*1354 FILLER_0_3_60
*1355 FILLER_0_3_68
*1356 FILLER_0_3_74
*1357 FILLER_0_3_91
*1358 FILLER_0_40_124
*1359 FILLER_0_40_129
*1360 FILLER_0_40_141
*1361 FILLER_0_40_15
*1362 FILLER_0_40_183
*1363 FILLER_0_40_213
*1364 FILLER_0_40_225
*1365 FILLER_0_40_237
*1366 FILLER_0_40_245
*1367 FILLER_0_40_27
*1368 FILLER_0_40_3
*1369 FILLER_0_40_45
*1370 FILLER_0_40_68
*1371 FILLER_0_40_76
*1372 FILLER_0_40_94
*1373 FILLER_0_41_108
*1374 FILLER_0_41_127
*1375 FILLER_0_41_135
*1376 FILLER_0_41_139
*1377 FILLER_0_41_149
*1378 FILLER_0_41_15
*1379 FILLER_0_41_156
*1380 FILLER_0_41_163
*1381 FILLER_0_41_167
*1382 FILLER_0_41_175
*1383 FILLER_0_41_183
*1384 FILLER_0_41_205
*1385 FILLER_0_41_215
*1386 FILLER_0_41_223
*1387 FILLER_0_41_225
*1388 FILLER_0_41_237
*1389 FILLER_0_41_245
*1390 FILLER_0_41_27
*1391 FILLER_0_41_29
*1392 FILLER_0_41_3
*1393 FILLER_0_41_37
*1394 FILLER_0_41_65
*1395 FILLER_0_41_72
*1396 FILLER_0_41_85
*1397 FILLER_0_41_98
*1398 FILLER_0_4_100
*1399 FILLER_0_4_108
*1400 FILLER_0_4_120
*1401 FILLER_0_4_125
*1402 FILLER_0_4_137
*1403 FILLER_0_4_141
*1404 FILLER_0_4_15
*1405 FILLER_0_4_153
*1406 FILLER_0_4_157
*1407 FILLER_0_4_182
*1408 FILLER_0_4_186
*1409 FILLER_0_4_221
*1410 FILLER_0_4_233
*1411 FILLER_0_4_245
*1412 FILLER_0_4_27
*1413 FILLER_0_4_29
*1414 FILLER_0_4_3
*1415 FILLER_0_4_41
*1416 FILLER_0_4_49
*1417 FILLER_0_4_61
*1418 FILLER_0_4_81
*1419 FILLER_0_5_101
*1420 FILLER_0_5_109
*1421 FILLER_0_5_113
*1422 FILLER_0_5_125
*1423 FILLER_0_5_137
*1424 FILLER_0_5_149
*1425 FILLER_0_5_15
*1426 FILLER_0_5_153
*1427 FILLER_0_5_162
*1428 FILLER_0_5_167
*1429 FILLER_0_5_186
*1430 FILLER_0_5_198
*1431 FILLER_0_5_219
*1432 FILLER_0_5_223
*1433 FILLER_0_5_225
*1434 FILLER_0_5_237
*1435 FILLER_0_5_245
*1436 FILLER_0_5_27
*1437 FILLER_0_5_3
*1438 FILLER_0_5_39
*1439 FILLER_0_5_47
*1440 FILLER_0_5_55
*1441 FILLER_0_5_68
*1442 FILLER_0_5_89
*1443 FILLER_0_6_111
*1444 FILLER_0_6_129
*1445 FILLER_0_6_137
*1446 FILLER_0_6_15
*1447 FILLER_0_6_157
*1448 FILLER_0_6_179
*1449 FILLER_0_6_187
*1450 FILLER_0_6_195
*1451 FILLER_0_6_197
*1452 FILLER_0_6_223
*1453 FILLER_0_6_235
*1454 FILLER_0_6_243
*1455 FILLER_0_6_27
*1456 FILLER_0_6_29
*1457 FILLER_0_6_3
*1458 FILLER_0_6_37
*1459 FILLER_0_6_65
*1460 FILLER_0_6_77
*1461 FILLER_0_6_83
*1462 FILLER_0_6_85
*1463 FILLER_0_6_95
*1464 FILLER_0_6_99
*1465 FILLER_0_7_133
*1466 FILLER_0_7_15
*1467 FILLER_0_7_166
*1468 FILLER_0_7_185
*1469 FILLER_0_7_225
*1470 FILLER_0_7_237
*1471 FILLER_0_7_27
*1472 FILLER_0_7_3
*1473 FILLER_0_7_39
*1474 FILLER_0_7_51
*1475 FILLER_0_7_55
*1476 FILLER_0_7_57
*1477 FILLER_0_7_69
*1478 FILLER_0_7_75
*1479 FILLER_0_7_89
*1480 FILLER_0_8_100
*1481 FILLER_0_8_108
*1482 FILLER_0_8_124
*1483 FILLER_0_8_131
*1484 FILLER_0_8_139
*1485 FILLER_0_8_141
*1486 FILLER_0_8_15
*1487 FILLER_0_8_156
*1488 FILLER_0_8_186
*1489 FILLER_0_8_240
*1490 FILLER_0_8_27
*1491 FILLER_0_8_3
*1492 FILLER_0_8_37
*1493 FILLER_0_8_49
*1494 FILLER_0_8_53
*1495 FILLER_0_8_89
*1496 FILLER_0_8_96
*1497 FILLER_0_9_102
*1498 FILLER_0_9_110
*1499 FILLER_0_9_113
*1500 FILLER_0_9_117
*1501 FILLER_0_9_121
*1502 FILLER_0_9_137
*1503 FILLER_0_9_15
*1504 FILLER_0_9_154
*1505 FILLER_0_9_158
*1506 FILLER_0_9_167
*1507 FILLER_0_9_189
*1508 FILLER_0_9_233
*1509 FILLER_0_9_241
*1510 FILLER_0_9_25
*1511 FILLER_0_9_3
*1512 FILLER_0_9_47
*1513 FILLER_0_9_55
*1514 FILLER_0_9_57
*1515 FILLER_0_9_90
*1516 PHY_EDGE_ROW_0_Left_42
*1517 PHY_EDGE_ROW_0_Right_0
*1518 PHY_EDGE_ROW_10_Left_52
*1519 PHY_EDGE_ROW_10_Right_10
*1520 PHY_EDGE_ROW_11_Left_53
*1521 PHY_EDGE_ROW_11_Right_11
*1522 PHY_EDGE_ROW_12_Left_54
*1523 PHY_EDGE_ROW_12_Right_12
*1524 PHY_EDGE_ROW_13_Left_55
*1525 PHY_EDGE_ROW_13_Right_13
*1526 PHY_EDGE_ROW_14_Left_56
*1527 PHY_EDGE_ROW_14_Right_14
*1528 PHY_EDGE_ROW_15_Left_57
*1529 PHY_EDGE_ROW_15_Right_15
*1530 PHY_EDGE_ROW_16_Left_58
*1531 PHY_EDGE_ROW_16_Right_16
*1532 PHY_EDGE_ROW_17_Left_59
*1533 PHY_EDGE_ROW_17_Right_17
*1534 PHY_EDGE_ROW_18_Left_60
*1535 PHY_EDGE_ROW_18_Right_18
*1536 PHY_EDGE_ROW_19_Left_61
*1537 PHY_EDGE_ROW_19_Right_19
*1538 PHY_EDGE_ROW_1_Left_43
*1539 PHY_EDGE_ROW_1_Right_1
*1540 PHY_EDGE_ROW_20_Left_62
*1541 PHY_EDGE_ROW_20_Right_20
*1542 PHY_EDGE_ROW_21_Left_63
*1543 PHY_EDGE_ROW_21_Right_21
*1544 PHY_EDGE_ROW_22_Left_64
*1545 PHY_EDGE_ROW_22_Right_22
*1546 PHY_EDGE_ROW_23_Left_65
*1547 PHY_EDGE_ROW_23_Right_23
*1548 PHY_EDGE_ROW_24_Left_66
*1549 PHY_EDGE_ROW_24_Right_24
*1550 PHY_EDGE_ROW_25_Left_67
*1551 PHY_EDGE_ROW_25_Right_25
*1552 PHY_EDGE_ROW_26_Left_68
*1553 PHY_EDGE_ROW_26_Right_26
*1554 PHY_EDGE_ROW_27_Left_69
*1555 PHY_EDGE_ROW_27_Right_27
*1556 PHY_EDGE_ROW_28_Left_70
*1557 PHY_EDGE_ROW_28_Right_28
*1558 PHY_EDGE_ROW_29_Left_71
*1559 PHY_EDGE_ROW_29_Right_29
*1560 PHY_EDGE_ROW_2_Left_44
*1561 PHY_EDGE_ROW_2_Right_2
*1562 PHY_EDGE_ROW_30_Left_72
*1563 PHY_EDGE_ROW_30_Right_30
*1564 PHY_EDGE_ROW_31_Left_73
*1565 PHY_EDGE_ROW_31_Right_31
*1566 PHY_EDGE_ROW_32_Left_74
*1567 PHY_EDGE_ROW_32_Right_32
*1568 PHY_EDGE_ROW_33_Left_75
*1569 PHY_EDGE_ROW_33_Right_33
*1570 PHY_EDGE_ROW_34_Left_76
*1571 PHY_EDGE_ROW_34_Right_34
*1572 PHY_EDGE_ROW_35_Left_77
*1573 PHY_EDGE_ROW_35_Right_35
*1574 PHY_EDGE_ROW_36_Left_78
*1575 PHY_EDGE_ROW_36_Right_36
*1576 PHY_EDGE_ROW_37_Left_79
*1577 PHY_EDGE_ROW_37_Right_37
*1578 PHY_EDGE_ROW_38_Left_80
*1579 PHY_EDGE_ROW_38_Right_38
*1580 PHY_EDGE_ROW_39_Left_81
*1581 PHY_EDGE_ROW_39_Right_39
*1582 PHY_EDGE_ROW_3_Left_45
*1583 PHY_EDGE_ROW_3_Right_3
*1584 PHY_EDGE_ROW_40_Left_82
*1585 PHY_EDGE_ROW_40_Right_40
*1586 PHY_EDGE_ROW_41_Left_83
*1587 PHY_EDGE_ROW_41_Right_41
*1588 PHY_EDGE_ROW_4_Left_46
*1589 PHY_EDGE_ROW_4_Right_4
*1590 PHY_EDGE_ROW_5_Left_47
*1591 PHY_EDGE_ROW_5_Right_5
*1592 PHY_EDGE_ROW_6_Left_48
*1593 PHY_EDGE_ROW_6_Right_6
*1594 PHY_EDGE_ROW_7_Left_49
*1595 PHY_EDGE_ROW_7_Right_7
*1596 PHY_EDGE_ROW_8_Left_50
*1597 PHY_EDGE_ROW_8_Right_8
*1598 PHY_EDGE_ROW_9_Left_51
*1599 PHY_EDGE_ROW_9_Right_9
*1600 TAP_TAPCELL_ROW_0_84
*1601 TAP_TAPCELL_ROW_0_85
*1602 TAP_TAPCELL_ROW_0_86
*1603 TAP_TAPCELL_ROW_0_87
*1604 TAP_TAPCELL_ROW_0_88
*1605 TAP_TAPCELL_ROW_0_89
*1606 TAP_TAPCELL_ROW_0_90
*1607 TAP_TAPCELL_ROW_0_91
*1608 TAP_TAPCELL_ROW_10_128
*1609 TAP_TAPCELL_ROW_10_129
*1610 TAP_TAPCELL_ROW_10_130
*1611 TAP_TAPCELL_ROW_10_131
*1612 TAP_TAPCELL_ROW_11_132
*1613 TAP_TAPCELL_ROW_11_133
*1614 TAP_TAPCELL_ROW_11_134
*1615 TAP_TAPCELL_ROW_11_135
*1616 TAP_TAPCELL_ROW_12_136
*1617 TAP_TAPCELL_ROW_12_137
*1618 TAP_TAPCELL_ROW_12_138
*1619 TAP_TAPCELL_ROW_12_139
*1620 TAP_TAPCELL_ROW_13_140
*1621 TAP_TAPCELL_ROW_13_141
*1622 TAP_TAPCELL_ROW_13_142
*1623 TAP_TAPCELL_ROW_13_143